geometry optimzed in LAMMPS
_audit_creation_date              2020-11-30 
_audit_creation_method            'lammps2cif' 
_symmetry_space_group_name_H-M    'P1' 
_symmetry_Int_Tables_number       1 
_symmetry_cell_setting            triclinic 
loop_ 
_symmetry_equiv_pos_as_xyz 
  x,y,z 
_cell_length_a                    32.12411421 
_cell_length_b                    32.22875828524114 
_cell_length_c                    162.35505928336133 
_cell_angle_alpha                 89.7185098942644 
_cell_angle_beta                  90.32106574662073 
_cell_angle_gamma                 88.67529166820619 
loop_ 
_atom_site_label 
_atom_site_type_symbol 
_atom_site_fract_x 
_atom_site_fract_y 
_atom_site_fract_z 
_atom_site_charge 
N1          N  0.44140095  0.17691470  0.87972150    -0.26200
N2          N  0.42110592  0.19835187  0.88540096    -0.34000
C3          C  0.41596241  0.17355521  0.89198621     0.02200
C4          C  0.43514817  0.13461390  0.89067110     0.08200
C5          C  0.45087281  0.13829018  0.88270440    -0.04900
H6          H  0.40238233  0.18442055  0.89768693     0.08900
H7          H  0.47057576  0.11582246  0.87957092     0.10100
Cu8        Cu  0.41052949  0.26390075  0.88482340     0.44200
Cu9        Cu  0.00659264  0.18752357  0.86887004     0.42000
Cu10       Cu  0.00969374  0.30445195  0.86856136     0.43900
N11         N  0.41534542  0.32976844  0.88514237    -0.33600
N12         N  0.43477170  0.35176188  0.87952379    -0.27800
C13         C  0.44195248  0.39025460  0.88255813    -0.03900
C14         C  0.42551398  0.39324586  0.89048889     0.08300
C15         C  0.40807388  0.35415832  0.89168876     0.02100
H16         H  0.46083649  0.41297044  0.87950794     0.09800
H17         H  0.39462425  0.34271614  0.89732999     0.08800
N18         N  0.02167246  0.26529696  0.85843249    -0.35000
N19         N  0.02042460  0.22419600  0.85854741    -0.27200
C20         C  0.02629833  0.20999913  0.85082744    -0.02400
C21         C  0.03157540  0.24344743  0.84552547     0.06200
C22         C  0.02853064  0.27793097  0.85063279     0.04300
H23         H  0.02568936  0.17753738  0.84919175     0.09400
H24         H  0.02951729  0.31016986  0.84878540     0.08200
N25         N  0.02282147  0.33644761  0.77504068    -0.26200
N26         N  0.01670827  0.31770960  0.76793162    -0.34000
C27         C  0.01376641  0.34617395  0.76185455     0.02200
C28         C  0.01852783  0.38481671  0.76532327     0.08200
C29         C  0.02410976  0.37753306  0.77367149    -0.04900
H30         H  0.00910110  0.33904223  0.75541646     0.08900
H31         H  0.02857652  0.40051036  0.77841332     0.10100
Cu32       Cu  0.01657950  0.25439060  0.76681902     0.44200
Cu33       Cu  0.02989495  0.30486714  0.78622478     0.42000
Cu34       Cu  0.04234148  0.19289104  0.78522128     0.43900
N35         N  0.03077473  0.19203374  0.76665025    -0.33600
N36         N  0.04170976  0.16944493  0.77316960    -0.27800
C37         C  0.05144575  0.13067871  0.77061780    -0.03900
C38         C  0.04604178  0.12908000  0.76214203     0.08300
C39         C  0.03288688  0.16855507  0.75985790     0.02100
H40         H  0.06096854  0.10531434  0.77464361     0.09800
H41         H  0.02578313  0.17976701  0.75370613     0.08800
N42         N  0.04069716  0.22600994  0.79633551    -0.35000
N43         N  0.03664736  0.26691109  0.79661756    -0.27200
C44         C  0.03665767  0.27905075  0.80454139    -0.02400
C45         C  0.04071044  0.24425102  0.80958833     0.06200
C46         C  0.04310372  0.21112726  0.80411986     0.04300
H47         H  0.03299697  0.31098947  0.80646898     0.09400
H48         H  0.04639523  0.17854198  0.80567129     0.08200
N49         N  0.43772945  0.18574638  0.04073692    -0.26200
N50         N  0.41064533  0.21030884  0.04455100    -0.34000
C51         C  0.40250196  0.19456650  0.05201868     0.02200
C52         C  0.42548366  0.15835630  0.05298445     0.08200
C53         C  0.44753858  0.15335855  0.04573318    -0.04900
H54         H  0.38483667  0.21068151  0.05672637     0.08900
H55         H  0.47129626  0.12995833  0.04446048     0.10100
Cu56       Cu  0.40010052  0.27125937  0.04134417     0.44200
Cu57       Cu  0.46495880  0.20388662  0.02970380     0.42000
Cu58       Cu  0.48444947  0.31428821  0.03033525     0.43900
N59         N  0.42846944  0.32469548  0.04487625    -0.33600
N60         N  0.46238579  0.33895496  0.04138260    -0.27800
C61         C  0.48015597  0.36600928  0.04658032    -0.03900
C62         C  0.45601743  0.36827200  0.05361982     0.08300
C63         C  0.42365933  0.34193042  0.05231730     0.02100
H64         H  0.50967068  0.38062835  0.04555028     0.09800
H65         H  0.40064618  0.33276411  0.05677274     0.08800
N66         N  0.49063255  0.27848798  0.01971050    -0.35000
N67         N  0.48328268  0.23823425  0.01947324    -0.27200
C68         C  0.48563484  0.22527649  0.01160840    -0.02400
C69         C  0.49499239  0.25888346  0.00669454     0.06200
C70         C  0.49788068  0.29210126  0.01200066     0.04300
H71         H  0.47911583  0.19414663  0.00958270     0.09400
H72         H  0.50287569  0.32415463  0.01034332     0.08200
N73         N  0.45108179  0.18455831  0.94694272    -0.26200
N74         N  0.41836024  0.20204708  0.94323117    -0.34000
C75         C  0.41403949  0.18580341  0.93569249     0.02200
C76         C  0.44555609  0.15686026  0.93456981     0.08200
C77         C  0.46853367  0.15646980  0.94180672    -0.04900
H78         H  0.39264684  0.19774896  0.93103556     0.08900
H79         H  0.49759545  0.13978869  0.94297590     0.10100
Cu80       Cu  0.39349531  0.25870900  0.94651143     0.44200
Cu81       Cu  0.47415613  0.20713868  0.95802240     0.42000
Cu82       Cu  0.46392023  0.31855881  0.95833929     0.43900
N83         N  0.41164415  0.31675913  0.94301510    -0.33600
N84         N  0.44039501  0.33784569  0.94694148    -0.27800
C85         C  0.45486649  0.36714209  0.94181152    -0.03900
C86         C  0.43419470  0.36372358  0.93435436     0.08300
C87         C  0.40707573  0.33175148  0.93533224     0.02100
H88         H  0.48067072  0.38701194  0.94318252     0.09800
H89         H  0.38871838  0.31747895  0.93055738     0.08800
N90         N  0.48021470  0.28325066  0.96869550    -0.35000
N91         N  0.48434831  0.24229510  0.96855104    -0.27200
C92         C  0.49181131  0.22830009  0.97626184    -0.02400
C93         C  0.49241250  0.26203113  0.98147718     0.06200
C94         C  0.48487612  0.29635847  0.97650690     0.01700
H95         H  0.49475047  0.19588725  0.97798433     0.09400
H96         H  0.48136448  0.32829448  0.97845849     0.08200
N97         N  0.43419030  0.17312646  0.10751470    -0.26200
N98         N  0.41207559  0.19611084  0.10224706    -0.34000
C99         C  0.40057022  0.17170746  0.09597647     0.02200
C100        C  0.41765084  0.13153195  0.09701401     0.08200
C101        C  0.43862178  0.13399891  0.10452710    -0.04900
H102        H  0.38440695  0.18358136  0.09056537     0.08900
H103        H  0.45878271  0.11028833  0.10725116     0.10100
Cu104      Cu  0.40828635  0.26234875  0.10246924     0.44200
Cu105      Cu  0.45917018  0.19927737  0.11814185     0.42000
Cu106      Cu  0.46223227  0.31557783  0.11817894     0.43900
N107        N  0.41880807  0.32752329  0.10204571    -0.33600
N108        N  0.44123746  0.34693003  0.10760906    -0.27800
C109        C  0.44966409  0.38560605  0.10482670    -0.03900
C110        C  0.43125196  0.39157561  0.09711023     0.08300
C111        C  0.41162438  0.35381012  0.09569019     0.02100
H112        H  0.47099115  0.40627142  0.10782326     0.09800
H113        H  0.39691762  0.34459149  0.08999459     0.08800
N114        N  0.99834243  0.27269173  0.13040474    -0.35000
N115        N  0.99811078  0.23156546  0.13062274    -0.27200
C116        C  0.00619006  0.21870617  0.13840981    -0.02400
C117        C  0.01182702  0.25310897  0.14341150     0.06200
C118        C  0.00658895  0.28669664  0.13804431     0.04300
H119        H  0.00714283  0.18647546  0.14029085     0.09400
H120        H  0.00779721  0.31924598  0.13957227     0.08200
N121        N  0.06995703  0.18748528  0.21562132    -0.26200
N122        N  0.07579191  0.21275155  0.22189375    -0.34000
C123        C  0.07680916  0.19098213  0.22896058     0.02200
C124        C  0.07126063  0.14981144  0.22716118     0.08200
C125        C  0.06722109  0.14850120  0.21861274    -0.04900
H126        H  0.07879729  0.20459425  0.23502494     0.08900
H127        H  0.06049291  0.12175537  0.21488023     0.10100
Cu128      Cu  0.07330213  0.27623486  0.22112648     0.44200
Cu129      Cu  0.06073979  0.20910859  0.20346938     0.42000
Cu130      Cu  0.04009663  0.32193331  0.20220652     0.43900
N131        N  0.05272266  0.33678953  0.22033320    -0.33600
N132        N  0.03937393  0.35416519  0.21339627    -0.27800
C133        C  0.02433437  0.39253929  0.21510633    -0.03900
C134        C  0.02820030  0.39919638  0.22352237     0.08300
C135        C  0.04646580  0.36311289  0.22661964     0.02100
H136        H  0.01051721  0.41363781  0.21060489     0.09800
H137        H  0.05361813  0.35577084  0.23298573     0.08800
N138        N  0.04240729  0.28232348  0.19199493    -0.35000
N139        N  0.04952933  0.24172112  0.19236674    -0.27200
C140        C  0.04776723  0.22626632  0.18464905    -0.02400
C141        C  0.03922830  0.25859526  0.17911386     0.06200
C142        C  0.03613758  0.29356622  0.18407514     0.04300
H143        H  0.05234745  0.19378037  0.18319320     0.09400
H144        H  0.02906874  0.32506346  0.18212088     0.08200
C145        C  0.43387235  0.09726788  0.07508474    -0.09700
C146        C  0.42914984  0.11996285  0.08225409    -0.03600
C147        C  0.42472262  0.10112139  0.09005109    -0.09700
C148        C  0.42696113  0.05622497  0.09054801     0.11200
C149        C  0.43325537  0.03291919  0.08316843    -0.01500
C150        C  0.43657739  0.05389682  0.07547088     0.11000
C151        C  0.44237456  0.03114807  0.06822189    -0.11500
C152        C  0.47896109  0.49069697  0.06938341    -0.11500
C153        C  0.46704228  0.46811252  0.07634392     0.11000
C154        C  0.45710548  0.48920257  0.08378469    -0.01500
C155        C  0.42220132  0.03350955  0.09794766    -0.11600
C156        C  0.43453431  0.48881151  0.09802928    -0.11600
C157        C  0.44538745  0.46607717  0.09090040     0.11200
C158        C  0.44383874  0.42133305  0.09039739    -0.09700
C159        C  0.45376743  0.40227117  0.08284176    -0.03600
C160        C  0.46419421  0.42487381  0.07588748    -0.09700
H161        H  0.44543817  0.04609526  0.06227744     0.08500
H162        H  0.48784645  0.47557656  0.06369674     0.08500
H163        H  0.41648818  0.04966521  0.10366679     0.08700
H164        H  0.42503487  0.47264812  0.10353958     0.08700
H165        H  0.42893620  0.15343790  0.08163280     0.05100
H166        H  0.45287413  0.36881540  0.08225153     0.05100
C167        C  0.46282133  0.10144888  0.91233946    -0.09700
C168        C  0.45545560  0.12379939  0.90514413    -0.03600
C169        C  0.44755987  0.10453865  0.89752643    -0.09700
C170        C  0.44946177  0.05956806  0.89722870     0.11200
C171        C  0.45871365  0.03667698  0.90461929    -0.01500
C172        C  0.46583526  0.05811185  0.91211205     0.11000
C173        C  0.47501432  0.03583667  0.91936051    -0.11500
C174        C  0.45679179  0.48752918  0.91975637    -0.11500
C175        C  0.45050383  0.46640789  0.91234283     0.11000
C176        C  0.44569507  0.48894157  0.90482997    -0.01500
C177        C  0.44128400  0.03637981  0.89005342    -0.11600
C178        C  0.43183644  0.49163927  0.89012212    -0.11600
C179        C  0.43812275  0.46727532  0.89730694     0.11200
C180        C  0.43633789  0.42233219  0.89747659    -0.09700
C181        C  0.44349305  0.40192925  0.90507994    -0.03600
C182        C  0.44868754  0.42310896  0.91239408    -0.09700
H183        H  0.48186820  0.05122079  0.92510735     0.08500
H184        H  0.46092739  0.47132865  0.92557013     0.08500
H185        H  0.43371623  0.05220178  0.88433053     0.08700
H186        H  0.42518694  0.47685417  0.88431304     0.08700
H187        H  0.45479464  0.15731766  0.90563210     0.05100
H188        H  0.44410445  0.36836712  0.90546549     0.05100
C189        C  0.02577682  0.04830112  0.74518580     0.87600
C190        C  0.47789115  0.04029196  0.74649667    -0.52600
C191        C  0.48473854  0.00795492  0.74123644     0.10500
C192        C  0.99213871  0.49055869  0.74157489     0.21500
C193        C  0.01553916  0.01250507  0.75097166    -0.53300
C194        C  0.99375078  0.47644989  0.75069762     0.10600
C195        C  0.06444233  0.03357382  0.74039675    -0.52900
C196        C  0.05927632  0.99673021  0.73634354     0.11200
H197        H  0.44775319  0.05596223  0.74709022     0.15700
H198        H  0.00031009  0.46533053  0.73720284     0.01500
H199        H  0.01115006  0.01684450  0.75753394     0.16000
H200        H  0.09240037  0.05171220  0.73993819     0.15800
C201        C  0.05038536  0.04353451  0.23752952     0.87600
C202        C  0.49249048  0.04200779  0.24417560    -0.52600
C203        C  0.44501300  0.51646058  0.24797562     0.10500
C204        C  0.99450778  0.47806139  0.25037226     0.21500
C205        C  0.08426781  0.03605636  0.24412382    -0.53300
C206        C  0.02132408  0.51354285  0.25358365     0.10600
C207        C  0.99339429  0.51499434  0.23725274    -0.52900
C208        C  0.00126872  0.47743176  0.24093646     0.11200
H209        H  0.46423939  0.06115109  0.24383436     0.15700
H210        H  0.00130384  0.44778124  0.25345562     0.01500
H211        H  0.11172790  0.05492140  0.24453721     0.16000
H212        H  0.99784838  0.52093455  0.23074533     0.15800
N213        N  0.34288829  0.51075350  0.38180572    -0.26200
N214        N  0.31954968  0.52951845  0.38741408    -0.34000
C215        C  0.34380223  0.53790556  0.39395122     0.02200
C216        C  0.38438773  0.52242227  0.39269125     0.08200
C217        C  0.38225727  0.50555279  0.38480654    -0.04900
H218        H  0.33165821  0.55074059  0.39961913     0.08900
H219        H  0.40643291  0.48747356  0.38178503     0.10100
Cu220      Cu  0.25320987  0.53290805  0.38709179     0.44200
Cu221      Cu  0.31663043  0.49007757  0.37073110     0.42000
Cu222      Cu  0.20053476  0.48067674  0.37105644     0.43900
N223        N  0.18799202  0.52213209  0.38728389    -0.33600
N224        N  0.16881721  0.50017012  0.38162263    -0.27800
C225        C  0.12997968  0.49139732  0.38427158    -0.03900
C226        C  0.12365557  0.50916986  0.39198302     0.08300
C227        C  0.16142717  0.52863935  0.39356432     0.02100
H228        H  0.10942325  0.47027107  0.38119075     0.09800
H229        H  0.17051506  0.54245523  0.39934477     0.08800
N230        N  0.23829172  0.47249634  0.36069270    -0.35000
N231        N  0.27926964  0.47619373  0.36047958    -0.27200
C232        C  0.29197830  0.47197033  0.35260912    -0.02400
C233        C  0.25749660  0.46541206  0.34759093     0.06200
C234        C  0.22416805  0.46583645  0.35300416     0.04300
H235        H  0.32392179  0.47493859  0.35066745     0.09400
H236        H  0.19160791  0.46260053  0.35148709     0.08200
N237        N  0.33041894  0.47757865  0.27630158    -0.26200
N238        N  0.30856723  0.49793014  0.27061609    -0.34000
C239        C  0.33183887  0.50320086  0.26389331     0.02200
C240        C  0.37085751  0.48566135  0.26537212     0.08200
C241        C  0.36887827  0.46950929  0.27331102    -0.04900
H242        H  0.32079128  0.51893612  0.25837912     0.08900
H243        H  0.39376525  0.45385215  0.27670271     0.10100
Cu244      Cu  0.24770022  0.51678119  0.27194939     0.44200
Cu245      Cu  0.30434747  0.46429732  0.28774835     0.42000
Cu246      Cu  0.18811870  0.47963952  0.28847921     0.43900
N247        N  0.18403307  0.51985408  0.27184794    -0.33600
N248        N  0.16059318  0.50279851  0.27753433    -0.27800
C249        C  0.12060071  0.50442443  0.27484790    -0.03900
C250        C  0.11958473  0.52398509  0.26717070     0.08300
C251        C  0.16023505  0.53350247  0.26555571     0.02100
H252        H  0.09442911  0.49241977  0.27819689     0.09800
H253        H  0.17205844  0.54739838  0.25998155     0.08800
N254        N  0.22720181  0.46646294  0.29868723    -0.35000
N255        N  0.26820199  0.46111258  0.29840241    -0.27200
C256        C  0.28309465  0.45642482  0.30613675    -0.02400
C257        C  0.25019783  0.45903853  0.31164468     0.06200
C258        C  0.21526651  0.46528319  0.30663227     0.04300
H259        H  0.31582396  0.45270758  0.30761050     0.09400
H260        H  0.18344391  0.47013512  0.30859228     0.08200
N261        N  0.37244559  0.99288954  0.44724843    -0.26200
N262        N  0.35449411  0.02364075  0.44302331    -0.34000
C263        C  0.37087212  0.02528418  0.43545308     0.02200
C264        C  0.40061574  0.99417338  0.43482470     0.08200
C265        C  0.40119326  0.97408381  0.44240193    -0.04900
H266        H  0.35928328  0.04525998  0.43053422     0.08900
H267        H  0.41920852  0.94653498  0.44408710     0.10100
Cu268      Cu  0.29849842  0.05077668  0.44611068     0.44200
Cu269      Cu  0.35042788  0.97567109  0.45886994     0.42000
Cu270      Cu  0.23841373  0.98625981  0.45913698     0.43900
N271        N  0.23986981  0.03221880  0.44307458    -0.33600
N272        N  0.21854364  0.00550705  0.44747448    -0.27800
C273        C  0.18827325  0.99000047  0.44267858    -0.03900
C274        C  0.19139369  0.00786233  0.43494448     0.08300
C275        C  0.22414955  0.03439076  0.43541349     0.02100
H276        H  0.16768444  0.96554499  0.44450249     0.09800
H277        H  0.23816707  0.05089977  0.43035516     0.08800
N278        N  0.27384989  0.97271913  0.46963961    -0.35000
N279        N  0.31497460  0.96874714  0.46957547    -0.27200
C280        C  0.32857610  0.96159004  0.47734258    -0.02400
C281        C  0.29439190  0.96097491  0.48249329     0.06200
C282        C  0.26026732  0.96819327  0.47742313     0.04300
H283        H  0.36095271  0.95779040  0.47911949     0.09400
H284        H  0.22798685  0.97063610  0.47926414     0.08200
N285        N  0.20294767  0.95912429  0.54225910    -0.26200
N286        N  0.21624428  0.98966557  0.54692870    -0.34000
C287        C  0.19823350  0.98766971  0.55434198     0.02200
C288        C  0.17251700  0.95425803  0.55441292     0.08200
C289        C  0.17587482  0.93666519  0.54666490    -0.04900
H290        H  0.20704244  0.00615043  0.55958905     0.08900
H291        H  0.16243417  0.90798482  0.54462588     0.10100
Cu292      Cu  0.27065429  0.02005463  0.54498309     0.44200
Cu293      Cu  0.22954217  0.94627332  0.53080614     0.42000
Cu294      Cu  0.33974991  0.96423912  0.53197958     0.43900
N295        N  0.33076103  0.00532717  0.54842799    -0.33600
N296        N  0.35585130  0.98163403  0.54394326    -0.27800
C297        C  0.38742444  0.96748521  0.54877958    -0.03900
C298        C  0.38144353  0.98310509  0.55663327     0.08300
C299        C  0.34532914  0.00681570  0.55618998     0.02100
H300        H  0.41099850  0.94501760  0.54689523     0.09800
H301        H  0.32854708  0.02050239  0.56130135     0.08800
N302        N  0.30848753  0.95328469  0.52089919    -0.35000
N303        N  0.26804172  0.94645392  0.52046525    -0.27200
C304        C  0.25673661  0.94370340  0.51247759    -0.02400
C305        C  0.29168762  0.94904049  0.50768055     0.06200
C306        C  0.32389962  0.95509001  0.51320103     0.04300
H307        H  0.22514773  0.93975829  0.51032235     0.09400
H308        H  0.35585231  0.96185332  0.51173239     0.08200
N309        N  0.31156606  0.52571102  0.71428874    -0.26200
N310        N  0.28702449  0.54237714  0.71993696    -0.34000
C311        C  0.30988798  0.55323907  0.72647177     0.02200
C312        C  0.35085350  0.54258413  0.72494147     0.08200
C313        C  0.35106806  0.52512347  0.71714834    -0.04900
H314        H  0.29736153  0.56681158  0.73204281     0.08900
H315        H  0.37774672  0.51323411  0.71379331     0.10100
Cu316      Cu  0.22325338  0.54537705  0.71905810     0.44200
Cu317      Cu  0.28829594  0.50650666  0.70299591     0.42000
Cu318      Cu  0.17310062  0.50264159  0.70157307     0.43900
N319        N  0.16107025  0.53207631  0.71889500    -0.33600
N320        N  0.14196056  0.51460378  0.71263027    -0.27800
C321        C  0.10277766  0.50592075  0.71493868    -0.03900
C322        C  0.09731126  0.51877230  0.72302652     0.08300
C323        C  0.13506235  0.53514311  0.72530054     0.02100
H324        H  0.08023350  0.49068310  0.71108992     0.09800
H325        H  0.14392620  0.54673344  0.73128285     0.08800
N326        N  0.21385183  0.49718026  0.69158598    -0.35000
N327        N  0.25494402  0.49817510  0.69212617    -0.27200
C328        C  0.27112224  0.49584311  0.68450716    -0.02400
C329        C  0.23884633  0.49330630  0.67882130     0.06200
C330        C  0.20299929  0.49419060  0.68359404     0.04300
H331        H  0.30407091  0.49701526  0.68323945     0.09400
H332        H  0.17110750  0.49357398  0.68145494     0.08200
N333        N  0.16311448  0.52985103  0.60877286    -0.26200
N334        N  0.18375835  0.55055042  0.60313339    -0.34000
C335        C  0.15751381  0.55927100  0.59683413     0.02200
C336        C  0.11853257  0.54212096  0.59834522     0.08200
C337        C  0.12367059  0.52387947  0.60608431    -0.04900
H338        H  0.16745006  0.57301650  0.59110026     0.08900
H339        H  0.10177014  0.50411917  0.60915269     0.10100
Cu340      Cu  0.24981904  0.55581505  0.60327978     0.44200
Cu341      Cu  0.19333789  0.50786156  0.61935064     0.42000
Cu342      Cu  0.30999742  0.50894618  0.61982403     0.43900
N343        N  0.31587962  0.54753541  0.60304008    -0.33600
N344        N  0.33791455  0.52773354  0.60880220    -0.27800
C345        C  0.37717722  0.52045333  0.60599981    -0.03900
C346        C  0.38065005  0.53697807  0.59808606     0.08300
C347        C  0.34090017  0.55423366  0.59656615     0.02100
H348        H  0.40030585  0.50133472  0.60918219     0.09800
H349        H  0.32978886  0.56711946  0.59077057     0.08800
N350        N  0.27169982  0.49895974  0.63005775    -0.35000
N351        N  0.23051589  0.49811809  0.62976739    -0.27200
C352        C  0.21582615  0.49407520  0.63745531    -0.02400
C353        C  0.24901869  0.49247691  0.64296291     0.06200
C354        C  0.28401653  0.49550118  0.63799620     0.04300
H355        H  0.18302169  0.49396256  0.63888536     0.09400
H356        H  0.31612481  0.49663477  0.63999343     0.08200
C357        C  0.11812563  0.91814462  0.57584952    -0.09700
C358        C  0.14165998  0.90643716  0.58269386    -0.03600
C359        C  0.08799641  0.53051576  0.59169527    -0.09700
C360        C  0.04314697  0.52982111  0.59233234     0.11200
C361        C  0.05452694  0.91153718  0.58393474    -0.01500
C362        C  0.07478421  0.92206582  0.57646976     0.11000
C363        C  0.05135331  0.93652829  0.56969487    -0.11500
C364        C  0.50931565  0.95594935  0.57033723    -0.11500
C365        C  0.48784703  0.94218297  0.57729882     0.11000
C366        C  0.51041828  0.92508586  0.58412551    -0.01500
C367        C  0.02103033  0.54193282  0.59946803    -0.11600
C368        C  0.47829867  0.53938622  0.59891187    -0.11600
C369        C  0.45622047  0.52689664  0.59182741     0.11200
C370        C  0.41131362  0.52516777  0.59141434    -0.09700
C371        C  0.42296873  0.93118709  0.58436011    -0.03600
C372        C  0.44419229  0.94488847  0.57746680    -0.09700
H373        H  0.06569555  0.94533270  0.56394971     0.08500
H374        H  0.49323681  0.96961518  0.56507521     0.08500
H375        H  0.03778198  0.55194414  0.60487824     0.08700
H376        H  0.46157000  0.54777689  0.60444730     0.08700
H377        H  0.17516088  0.90634420  0.58200587     0.05100
H378        H  0.38927120  0.93417088  0.58427644     0.05100
C379        C  0.12965864  0.99476374  0.41326379    -0.09700
C380        C  0.15161505  0.99948437  0.40601589    -0.03600
C381        C  0.13191898  0.00902223  0.39844280    -0.09700
C382        C  0.08685088  0.01103800  0.39819821     0.11200
C383        C  0.06421502  0.00462650  0.40564362    -0.01500
C384        C  0.08609597  0.99661162  0.41314508     0.11000
C385        C  0.06409514  0.99115164  0.42048453    -0.11500
C386        C  0.52703464  0.97451138  0.41964560    -0.11500
C387        C  0.50345027  0.98346423  0.41254667     0.11000
C388        C  0.52372073  0.99429760  0.40508837    -0.01500
C389        C  0.06342786  0.02016511  0.39099865    -0.11600
C390        C  0.52144364  0.01497316  0.39068975    -0.11600
C391        C  0.49963438  0.00335563  0.39784894     0.11200
C392        C  0.45474526  0.00160208  0.39826095    -0.09700
C393        C  0.43652839  0.99045602  0.40581466    -0.03600
C394        C  0.45991277  0.98266132  0.41288845    -0.09700
H395        H  0.07975274  0.98433441  0.42627359     0.08500
H396        H  0.51271376  0.96485008  0.42534160     0.08500
H397        H  0.07917324  0.02586507  0.38524464     0.08700
H398        H  0.50449060  0.02255163  0.38508491     0.08700
H399        H  0.18526732  0.99685377  0.40641408     0.05100
H400        H  0.40298153  0.98878553  0.40633138     0.05100
C401        C  0.20562821  0.49162008  0.66474854    -0.12200
C402        C  0.24181962  0.49199399  0.66964875     0.09900
C403        C  0.31797483  0.93243702  0.66529874    -0.12200
C404        C  0.31780581  0.92909860  0.65669661    -0.12200
C405        C  0.24684537  0.49135692  0.65215263     0.09900
C406        C  0.20809118  0.49127116  0.65615353    -0.12200
H407        H  0.17508302  0.49185738  0.66750821     0.13900
H408        H  0.34775593  0.93396210  0.66839748     0.13900
H409        H  0.34744582  0.92813700  0.65357885     0.13900
H410        H  0.17928759  0.49125703  0.65268805     0.13900
C411        C  0.40272011  0.97048676  0.56409841    -0.12200
C412        C  0.42029730  0.95943776  0.57036037    -0.13700
C413        C  0.15406170  0.93736652  0.56170222    -0.12200
C414        C  0.13925192  0.92714305  0.56819654    -0.13700
C415        C  0.29333226  0.95215404  0.49878850    -0.12200
C416        C  0.29424072  0.95576398  0.49135589    -0.13700
C417        C  0.42184269  0.98303392  0.42733841    -0.12200
C418        C  0.43834083  0.97965648  0.42069857    -0.13700
C419        C  0.16991207  0.99730616  0.42749913    -0.12200
C420        C  0.15270997  0.99321248  0.42094831    -0.13700
C421        C  0.29241898  0.45736806  0.33373215    -0.12200
C422        C  0.25584921  0.46191126  0.33840632     0.09900
C423        C  0.21746652  0.46394151  0.33418162    -0.12200
C424        C  0.21568906  0.46236430  0.32556635    -0.12200
C425        C  0.25222800  0.45867352  0.32086651     0.09900
C426        C  0.29063914  0.45570155  0.32509380    -0.12200
H427        H  0.32257098  0.45525055  0.33672476     0.13900
H428        H  0.18850837  0.46749577  0.33749068     0.13900
H429        H  0.18545016  0.46448697  0.32262215     0.13900
H430        H  0.31956773  0.45257315  0.32175906     0.13900
C431        C  0.40741228  0.50974175  0.25297600    -0.15300
C432        C  0.40758947  0.48658362  0.25990348    -0.30500
H433        H  0.37985208  0.52797757  0.25128545     0.13700
H434        H  0.43589044  0.47037921  0.26190956     0.14300
C435        C  0.08473277  0.53270783  0.26139607    -0.15300
C436        C  0.05276728  0.50711370  0.26030037    -0.30500
H437        H  0.08853980  0.55868867  0.25721490     0.13700
H438        H  0.05128520  0.47901832  0.26399964     0.14300
C439        C  0.42164656  0.52747550  0.73049743    -0.15300
C440        C  0.38534109  0.54888267  0.73075456    -0.30500
H441        H  0.42668944  0.50374526  0.72586372     0.13700
H442        H  0.48584256  0.97073330  0.72604749     0.14300
C443        C  0.05663484  0.53287993  0.73559008    -0.15300
C444        C  0.06027744  0.51340261  0.72830198    -0.30500
H445        H  0.08016947  0.55461192  0.73745572     0.13700
H446        H  0.14227182  0.99579012  0.73751443     0.14300
C447        C  0.01555045  0.43964435  0.23637957    -0.15300
C448        C  0.01387790  0.43651972  0.22807482    -0.30500
H449        H  0.49445983  0.41314217  0.23767612     0.13700
H450        H  0.00081948  0.46167340  0.22436520     0.14300
C451        C  0.06535469  0.11671987  0.23337598    -0.15300
C452        C  0.05925651  0.07720697  0.23128304    -0.30500
H453        H  0.48930343  0.07078977  0.22599437     0.13700
H454        H  0.06016962  0.06887379  0.22481436     0.14300
C455        C  0.48741786  0.29365540  0.15479263    -0.12200
C456        C  0.01995789  0.25406232  0.15253284     0.09900
C457        C  0.02236809  0.21730533  0.15727804    -0.12200
C458        C  0.02907219  0.21858714  0.16584649    -0.12200
C459        C  0.03345172  0.25666718  0.16994459     0.09900
C460        C  0.49017892  0.29412205  0.16338136    -0.12200
H461        H  0.48374276  0.32305005  0.15161225     0.13900
H462        H  0.01876369  0.18737580  0.15441216     0.13900
H463        H  0.03020511  0.18966497  0.16925866     0.13900
H464        H  0.48837541  0.32382393  0.16643962     0.13900
C465        C  0.44361743  0.38344309  0.92666083    -0.12200
C466        C  0.44810676  0.39986946  0.92004848    -0.13700
C467        C  0.46180627  0.12332713  0.92011251    -0.12200
C468        C  0.45647479  0.13844822  0.92681505    -0.13700
C469        C  0.46506100  0.38783427  0.06134511    -0.12200
C470        C  0.46728734  0.40344269  0.06807148    -0.13700
C471        C  0.43374805  0.11934540  0.06727563    -0.12200
C472        C  0.43124644  0.13628072  0.06063860    -0.13700
C473        C  0.49513563  0.26111821  0.99035570    -0.12200
C474        C  0.49591536  0.26013184  0.99780561    -0.13700
C475        C  0.01653374  0.42604391  0.76139498    -0.15300
C476        C  0.00364883  0.43341333  0.75358211    -0.30500
H477        H  0.02406329  0.45170749  0.76538868     0.13700
H478        H  0.45448952  0.42355976  0.74935039     0.14300
C479        C  0.02980267  0.08914485  0.74965216    -0.15300
C480        C  0.05071536  0.09218706  0.75683672    -0.30500
H481        H  0.51322483  0.08062952  0.76407711     0.13700
H482        H  0.06784859  0.06539753  0.75929125     0.14300
C483        C  0.45132890  0.30165901  0.83126664    -0.12200
C484        C  0.03616460  0.24284240  0.83634235     0.09900
C485        C  0.02963959  0.20639916  0.83179361    -0.12200
C486        C  0.03193613  0.20654974  0.82315152    -0.12200
C487        C  0.04067800  0.24316737  0.81880213     0.09900
C488        C  0.44996275  0.30179216  0.82265200    -0.12200
H489        H  0.44679547  0.33088131  0.83441334     0.13900
H490        H  0.02186322  0.17779483  0.83487209     0.13900
H491        H  0.02579736  0.17814638  0.81988032     0.13900
H492        H  0.44470174  0.33120953  0.81955374     0.13900
N493        N  0.45392173  0.67615421  0.88096857    -0.26200
N494        N  0.43115308  0.69840771  0.88615643    -0.34000
C495        C  0.41938035  0.67329412  0.89232498     0.02200
C496        C  0.43638575  0.63324566  0.89123685     0.08200
C497        C  0.45815201  0.63666815  0.88387180    -0.04900
H498        H  0.40303398  0.68442005  0.89771952     0.08900
H499        H  0.47852814  0.61323113  0.88120404     0.10100
Cu500      Cu  0.42534300  0.76451227  0.88573916     0.44200
Cu501      Cu  0.00543544  0.68860586  0.86902436     0.42000
Cu502      Cu  0.00570724  0.80586932  0.86914936     0.43900
N503        N  0.43240421  0.83019637  0.88599119    -0.33600
N504        N  0.45577111  0.85062034  0.88074795    -0.27800
C505        C  0.46160556  0.88961458  0.88359151    -0.03900
C506        C  0.44037330  0.89470203  0.89099079     0.08300
C507        C  0.42177584  0.85615845  0.89213963     0.02100
H508        H  0.48298785  0.91121503  0.88089810     0.09800
H509        H  0.40545383  0.84623391  0.89759132     0.08800
N510        N  0.01373480  0.76806704  0.85874074    -0.35000
N511        N  0.01326119  0.72693610  0.85866564    -0.27200
C512        C  0.01572423  0.71396436  0.85079256    -0.02400
C513        C  0.01791673  0.74830372  0.84560977     0.06200
C514        C  0.01665436  0.78196263  0.85092763     0.04300
H515        H  0.01507542  0.68172952  0.84899151     0.09400
H516        H  0.01621197  0.81447663  0.84924952     0.08200
N517        N  0.00106651  0.85044193  0.77529720    -0.26200
N518        N  0.97953630  0.83531394  0.76908818    -0.34000
C519        C  0.98065002  0.86142831  0.76263176     0.02200
C520        C  0.00397235  0.89502054  0.76485448     0.08200
C521        C  0.01626808  0.88722893  0.77293825    -0.04900
H522        H  0.96592329  0.85585206  0.75674630     0.08900
H523        H  0.03530571  0.90665160  0.77677405     0.10100
Cu524      Cu  0.95343057  0.77809075  0.76921139     0.44200
Cu525      Cu  0.00927503  0.81820119  0.78645404     0.42000
Cu526      Cu  0.97924828  0.70892925  0.78591270     0.43900
N527        N  0.94756682  0.71527136  0.76843037    -0.33600
N528        N  0.95854947  0.68908011  0.77437908    -0.27800
C529        C  0.95911359  0.65038966  0.77128491    -0.03900
C530        C  0.94831670  0.65281486  0.76297312     0.08300
C531        C  0.94101279  0.69436212  0.76143682     0.02100
H532        H  0.96985669  0.62320930  0.77467758     0.09800
H533        H  0.93513872  0.70877202  0.75549709     0.08800
N534        N  0.99931775  0.73920409  0.79654130    -0.35000
N535        N  0.01018466  0.77854428  0.79673435    -0.27200
C536        C  0.01912510  0.78877451  0.80457492    -0.02400
C537        C  0.01354854  0.75438886  0.80963813     0.06200
C538        C  0.00112412  0.72353487  0.80425136     0.04300
H539        H  0.02786889  0.81953042  0.80644131     0.09400
H540        H  0.99263060  0.69221677  0.80581406     0.08200
N541        N  0.46620326  0.68539785  0.04183589    -0.26200
N542        N  0.43142401  0.70064824  0.04506436    -0.34000
C543        C  0.42577860  0.68373704  0.05252278     0.02200
C544        C  0.45852522  0.65667481  0.05410660     0.08200
C545        C  0.48371299  0.65808862  0.04722367    -0.04900
H546        H  0.40199989  0.69375286  0.05681946     0.08900
H547        H  0.51375816  0.64280433  0.04643758     0.10100
Cu548      Cu  0.40337574  0.75539562  0.04134911     0.44200
Cu549      Cu  0.49004543  0.70904488  0.03091449     0.42000
Cu550      Cu  0.47137465  0.81951262  0.03012998     0.43900
N551        N  0.41691795  0.81442303  0.04498726    -0.33600
N552        N  0.44492795  0.83738952  0.04130699    -0.27800
C553        C  0.45625776  0.86766896  0.04651223    -0.03900
C554        C  0.43430989  0.86293281  0.05376191     0.08300
C555        C  0.40973754  0.82910056  0.05258097     0.02100
H556        H  0.48080474  0.88932914  0.04535215     0.09800
H557        H  0.39136261  0.81364040  0.05718918     0.08800
N558        N  0.49003236  0.78483137  0.01991199    -0.35000
N559        N  0.49734941  0.74425629  0.02023768    -0.27200
C560        C  0.50500586  0.73026259  0.01257451    -0.02400
C561        C  0.50238251  0.76358277  0.00719136     0.06200
C562        C  0.49278683  0.79766396  0.01202391     0.04300
H563        H  0.51004174  0.69796321  0.01099644     0.09400
H564        H  0.48640775  0.82909503  0.00992364     0.08200
N565        N  0.45714064  0.68468369  0.94741308    -0.26200
N566        N  0.42714449  0.70603746  0.94358373    -0.34000
C567        C  0.42074818  0.68987520  0.93610035     0.02200
C568        C  0.44790515  0.65673362  0.93512991     0.08200
C569        C  0.47063980  0.65395145  0.94240198    -0.04900
H570        H  0.40070761  0.70378461  0.93141816     0.08900
H571        H  0.49675671  0.63313386  0.94372163     0.10100
Cu572      Cu  0.40818470  0.76478344  0.94687151     0.44200
Cu573      Cu  0.48138838  0.70476687  0.95862636     0.42000
Cu574      Cu  0.48447836  0.81722302  0.95840313     0.43900
N575        N  0.42948505  0.82180925  0.94348712    -0.33600
N576        N  0.46071094  0.84005201  0.94723733    -0.27800
C577        C  0.47569526  0.86935981  0.94215727    -0.03900
C578        C  0.45264316  0.86894010  0.93491765     0.08300
C579        C  0.42372531  0.83863747  0.93598296     0.02100
H580        H  0.50306466  0.88730685  0.94339129     0.09800
H581        H  0.40297892  0.82667226  0.93133602     0.08800
N582        N  0.49516559  0.78118871  0.96896513    -0.35000
N583        N  0.49390223  0.74013190  0.96906677    -0.27200
C584        C  0.49812817  0.72664749  0.97690848    -0.02400
C585        C  0.50234043  0.76079108  0.98194468     0.06200
C586        C  0.50026240  0.79480554  0.97673168     0.01700
H587        H  0.49656828  0.69452226  0.97882644     0.09400
H588        H  0.50068012  0.82714165  0.97848272     0.08200
N589        N  0.44515712  0.67327613  0.10836135    -0.26200
N590        N  0.42303631  0.69487986  0.10287653    -0.34000
C591        C  0.41477615  0.66981105  0.09648463     0.02200
C592        C  0.43352357  0.63053031  0.09775621     0.08200
C593        C  0.45241886  0.63433280  0.10545869    -0.04900
H594        H  0.40015986  0.68076611  0.09083501     0.08900
H595        H  0.47342334  0.61186851  0.10834617     0.10100
Cu596      Cu  0.41474301  0.76079093  0.10329926     0.44200
Cu597      Cu  0.46779044  0.70198249  0.11898058     0.42000
Cu598      Cu  0.47053897  0.81854557  0.11844848     0.43900
N599        N  0.41997148  0.82672824  0.10300476    -0.33600
N600        N  0.44373595  0.84778247  0.10809004    -0.27800
C601        C  0.44808904  0.88691676  0.10510723    -0.03900
C602        C  0.42530221  0.89141667  0.09780607     0.08300
C603        C  0.40748784  0.85239163  0.09686488     0.02100
H604        H  0.46931304  0.90913972  0.10764686     0.09800
H605        H  0.39046690  0.84198711  0.09151883     0.08800
N606        N  0.98025970  0.76708264  0.13077052    -0.35000
N607        N  0.97992381  0.72595659  0.13066437    -0.27200
C608        C  0.98202087  0.71173558  0.13849043    -0.02400
C609        C  0.98379512  0.74523804  0.14383862     0.06200
C610        C  0.98267629  0.77974125  0.13865718     0.04300
H611        H  0.98173122  0.67920302  0.14014113     0.09400
H612        H  0.98243877  0.81198295  0.14046572     0.08200
N613        N  0.95215827  0.67367440  0.21597646    -0.26200
N614        N  0.95692325  0.69622360  0.22268950    -0.34000
C615        C  0.95376697  0.67186568  0.22938457     0.02200
C616        C  0.94642908  0.63188543  0.22681632     0.08200
C617        C  0.94515807  0.63420621  0.21828538    -0.04900
H618        H  0.95860154  0.68223950  0.23563708     0.08900
H619        H  0.94249990  0.60850082  0.21406994     0.10100
Cu620      Cu  0.97397439  0.75741330  0.22273323     0.44200
Cu621      Cu  0.96225201  0.69645331  0.20402922     0.42000
Cu622      Cu  0.01022277  0.79732102  0.20341428     0.43900
N623        N  0.00128432  0.81428560  0.22162820    -0.33600
N624        N  0.01611429  0.82831152  0.21459416    -0.27800
C625        C  0.03321561  0.86534570  0.21594041    -0.03900
C626        C  0.02864924  0.87511762  0.22418444     0.08300
C627        C  0.00819188  0.84204192  0.22762151     0.02100
H628        H  0.04710837  0.88429355  0.21122035     0.09800
H629        H  0.99896095  0.83825051  0.23397194     0.08800
N630        N  0.99637990  0.76319637  0.19290078    -0.35000
N631        N  0.97872105  0.72653923  0.19305597    -0.27200
C632        C  0.97311241  0.71372048  0.18523238    -0.02400
C633        C  0.98769187  0.74383050  0.17985670     0.06200
C634        C  0.00225144  0.77465574  0.18501232     0.04300
H635        H  0.95868854  0.68489545  0.18359478     0.09400
H636        H  0.01603013  0.80357243  0.18319701     0.08200
C637        C  0.46577527  0.59883305  0.07636924    -0.09700
C638        C  0.45581096  0.62084057  0.08343597    -0.03600
C639        C  0.44552267  0.60109726  0.09089280    -0.09700
C640        C  0.44621570  0.55618599  0.09115067     0.11200
C641        C  0.45751577  0.53361779  0.08390908    -0.01500
C642        C  0.46785481  0.55539379  0.07658866     0.11000
C643        C  0.47937319  0.53335289  0.06950366    -0.11500
C644        C  0.44448577  0.98852000  0.06839180    -0.11500
C645        C  0.44077217  0.96659600  0.07581606     0.11000
C646        C  0.43532553  0.98847959  0.08334113    -0.01500
C647        C  0.43494090  0.53285284  0.09815163    -0.11600
C648        C  0.42407907  0.98942977  0.09811182    -0.11600
C649        C  0.43083831  0.96599537  0.09088624     0.11200
C650        C  0.43227336  0.92106914  0.09072108    -0.09700
C651        C  0.43905027  0.90130075  0.08310384    -0.03600
C652        C  0.44204289  0.92313745  0.07576762    -0.09700
H653        H  0.48858089  0.54892954  0.06390153     0.08500
H654        H  0.44910191  0.97291758  0.06256837     0.08500
H655        H  0.42575682  0.54859278  0.10374919     0.08700
H656        H  0.41992263  0.97375119  0.10394842     0.08700
H657        H  0.45558186  0.65441956  0.08301067     0.05100
H658        H  0.44125842  0.86773626  0.08277263     0.05100
C659        C  0.45446396  0.59691961  0.91306057    -0.09700
C660        C  0.45043777  0.62024698  0.90589473    -0.03600
C661        C  0.44315119  0.60216495  0.89814551    -0.09700
C662        C  0.44168234  0.55738434  0.89765355     0.11200
C663        C  0.44726690  0.53331336  0.90500544    -0.01500
C664        C  0.45343686  0.55354691  0.91268304     0.11000
C665        C  0.45817310  0.53008262  0.91992367    -0.11500
C666        C  0.47513371  0.99319602  0.91946283    -0.11500
C667        C  0.46625451  0.97086128  0.91231431     0.11000
C668        C  0.45901951  0.99222571  0.90472234    -0.01500
C669        C  0.43374623  0.53563909  0.89028554    -0.11600
C670        C  0.44197169  0.99228314  0.89013951    -0.11600
C671        C  0.45052719  0.96929946  0.89742029     0.11200
C672        C  0.44962809  0.92447199  0.89788931    -0.09700
C673        C  0.45682010  0.90519414  0.90559794    -0.03600
C674        C  0.46381445  0.92757416  0.91271990    -0.09700
H675        H  0.46320215  0.54438685  0.92585476     0.08500
H676        H  0.48199788  0.97788798  0.92528096     0.08500
H677        H  0.42854495  0.55260347  0.88459197     0.08700
H678        H  0.43495380  0.97625694  0.88447672     0.08700
H679        H  0.45255121  0.65363025  0.90646174     0.05100
H680        H  0.45654023  0.87168863  0.90617667     0.05100
C681        C  0.97250480  0.54891679  0.75203059     0.87600
C682        C  0.45816163  0.56728243  0.74154784    -0.52600
C683        C  0.45290159  0.53157560  0.73717004     0.10500
C684        C  0.01629590  0.97769082  0.73770902     0.21500
C685        C  0.98287223  0.50723102  0.75605204    -0.53300
C686        C  0.01166329  0.97516888  0.74717704     0.10600
C687        C  0.01064115  0.55856929  0.74677009    -0.52900
C688        C  0.02070467  0.52838975  0.74118730     0.11200
H689        H  0.44182203  0.59630401  0.74010337     0.15700
H690        H  0.01228060  0.94755045  0.73454094     0.01500
H691        H  0.98025173  0.50249777  0.76264652     0.16000
H692        H  0.02796013  0.58696492  0.74737112     0.15800
C693        C  0.97833340  0.54901123  0.24313760     0.87600
C694        C  0.45030873  0.55307275  0.24386618    -0.52600
C695        C  0.49531636  0.00613405  0.24864633     0.10500
C696        C  0.03441014  0.98303297  0.24767945     0.21500
C697        C  0.01259459  0.55083788  0.24977847    -0.53300
C698        C  0.07589472  0.00435782  0.24951564     0.10600
C699        C  0.04552975  0.00171898  0.23334360    -0.52900
C700        C  0.03743986  0.96963805  0.23856444     0.11200
H701        H  0.42715145  0.57818147  0.24383179     0.15700
H702        H  0.02784027  0.95685140  0.25190217     0.01500
H703        H  0.02782277  0.57942154  0.25137211     0.16000
H704        H  0.04686275  0.99864527  0.22670519     0.15800
N705        N  0.38024365  0.00245885  0.38090421    -0.26200
N706        N  0.35860639  0.02279980  0.38655721    -0.34000
C707        C  0.38407170  0.03023065  0.39296786     0.02200
C708        C  0.42373547  0.01284503  0.39152777     0.08200
C709        C  0.41972872  0.99551674  0.38371723    -0.04900
H710        H  0.37334209  0.04369800  0.39869025     0.08900
H711        H  0.44266184  0.97612625  0.38063209     0.10100
Cu712      Cu  0.29254135  0.03075850  0.38623834     0.44200
Cu713      Cu  0.35112182  0.98307545  0.37003626     0.42000
Cu714      Cu  0.23368655  0.98427289  0.37016035     0.43900
N715        N  0.22648407  0.02583463  0.38648213    -0.33600
N716        N  0.20481815  0.00527096  0.38096531    -0.27800
C717        C  0.16564620  0.99979108  0.38384545    -0.03900
C718        C  0.16183630  0.01849322  0.39154708     0.08300
C719        C  0.20126632  0.03518939  0.39282569     0.02100
H720        H  0.14288829  0.98051466  0.38089498     0.09800
H721        H  0.21218941  0.04934897  0.39844280     0.08800
N722        N  0.27132034  0.97486322  0.35977103    -0.35000
N723        N  0.31259366  0.97435646  0.35972163    -0.27200
C724        C  0.32564928  0.97028377  0.35188310    -0.02400
C725        C  0.29120651  0.96825513  0.34667983     0.06200
C726        C  0.25738491  0.97120316  0.35196715     0.04300
H727        H  0.35804310  0.97017106  0.35011371     0.09400
H728        H  0.22477294  0.97161404  0.35028783     0.08200
N729        N  0.38158267  0.95827850  0.27616143    -0.26200
N730        N  0.36076587  0.95312932  0.26923016    -0.34000
C731        C  0.38654476  0.95685571  0.26281747     0.02200
C732        C  0.42592002  0.96468641  0.26582475     0.08200
C733        C  0.42178633  0.96503234  0.27433030    -0.04900
H734        H  0.37678692  0.95561228  0.25643653     0.08900
H735        H  0.44565125  0.97201469  0.27880833     0.10100
Cu736      Cu  0.29731212  0.94853467  0.26874523     0.44200
Cu737      Cu  0.35064979  0.96034840  0.28741799     0.42000
Cu738      Cu  0.23402968  0.96852757  0.28649944     0.43900
N739        N  0.23468554  0.96147464  0.26802510    -0.33600
N740        N  0.21013543  0.96980028  0.27434185    -0.27800
C741        C  0.17230196  0.98196846  0.27133587    -0.03900
C742        C  0.17408823  0.98148619  0.26275737     0.08300
C743        C  0.21402493  0.96854779  0.26095876     0.02100
H744        H  0.14655866  0.99301814  0.27505992     0.09800
H745        H  0.22789460  0.96652283  0.25490950     0.08800
N746        N  0.27020392  0.96530474  0.29742322    -0.35000
N747        N  0.31141584  0.96232979  0.29762773    -0.27200
C748        C  0.32438280  0.96097390  0.30552165    -0.02400
C749        C  0.29002983  0.96320929  0.31066374     0.06200
C750        C  0.25618734  0.96592508  0.30525431     0.04300
H751        H  0.35678741  0.95880860  0.30732924     0.09400
H752        H  0.22361727  0.96827891  0.30686333     0.08200
N753        N  0.33182550  0.49187802  0.44870834    -0.26200
N754        N  0.30907100  0.51996726  0.44464320    -0.34000
C755        C  0.32536979  0.52616697  0.43716641     0.02200
C756        C  0.36003289  0.50079976  0.43640109     0.08200
C757        C  0.36362912  0.47936867  0.44382363    -0.04900
H758        H  0.31047967  0.54445760  0.43232994     0.08900
H759        H  0.38576327  0.45463408  0.44532566     0.10100
Cu760      Cu  0.24845815  0.53452862  0.44743277     0.44200
Cu761      Cu  0.31180650  0.46842953  0.46006658     0.42000
Cu762      Cu  0.20047916  0.45547019  0.45906546     0.43900
N763        N  0.19561580  0.50580575  0.44356289    -0.33600
N764        N  0.17918518  0.47399940  0.44743355    -0.27800
C765        C  0.15220128  0.45562591  0.44228039    -0.03900
C766        C  0.15240574  0.47704156  0.43486197     0.08300
C767        C  0.18005907  0.50850533  0.43589383     0.02100
H768        H  0.13546876  0.42773749  0.44368156     0.09800
H769        H  0.19054933  0.52985648  0.43122070     0.08800
N770        N  0.23467256  0.45001556  0.46999809    -0.35000
N771        N  0.27547240  0.45483253  0.47041226    -0.27200
C772        C  0.28749435  0.45277832  0.47838644    -0.02400
C773        C  0.25266463  0.44630982  0.48317576     0.06200
C774        C  0.21977016  0.44478702  0.47767024     0.04300
H775        H  0.31899161  0.45713158  0.48055590     0.09400
H776        H  0.18718894  0.44162164  0.47914565     0.08200
N777        N  0.16897706  0.49748156  0.54273065    -0.26200
N778        N  0.18876949  0.52840653  0.54621085    -0.34000
C779        C  0.17227567  0.53645904  0.55361551     0.02200
C780        C  0.14059016  0.50938286  0.55493051     0.08200
C781        C  0.13895406  0.48497985  0.54792192    -0.04900
H782        H  0.18527705  0.55753105  0.55805914     0.08900
H783        H  0.11954500  0.45846145  0.54692803     0.10100
Cu784      Cu  0.24690315  0.54657454  0.54280386     0.44200
Cu785      Cu  0.19051637  0.47114558  0.53172640     0.42000
Cu786      Cu  0.30376662  0.47019100  0.53178838     0.43900
N787        N  0.30565378  0.52704799  0.54624447    -0.33600
N788        N  0.32595328  0.49592970  0.54267878    -0.27800
C789        C  0.35688838  0.48259329  0.54776693    -0.03900
C790        C  0.35529823  0.50658619  0.55482397     0.08300
C791        C  0.32268476  0.53434720  0.55364021     0.02100
H792        H  0.37689219  0.45573223  0.54667580     0.09800
H793        H  0.30959661  0.55543806  0.55815613     0.08800
N794        N  0.26790791  0.45721424  0.52138980    -0.35000
N795        N  0.22665055  0.45758916  0.52131170    -0.27200
C796        C  0.21338576  0.45208817  0.51349623    -0.02400
C797        C  0.24789558  0.44803655  0.50846147     0.06200
C798        C  0.28183568  0.45148320  0.51365616     0.04300
H799        H  0.18106839  0.45284387  0.51157563     0.09400
H800        H  0.31426415  0.45171140  0.51189663     0.08200
N801        N  0.37453883  0.94855022  0.71359946    -0.26200
N802        N  0.35337887  0.94702165  0.72053216    -0.34000
C803        C  0.37877783  0.95408371  0.72692006     0.02200
C804        C  0.41833955  0.96063763  0.72394028     0.08200
C805        C  0.41467692  0.95644921  0.71544357    -0.04900
H806        H  0.36855465  0.95581268  0.73324597     0.08900
H807        H  0.43883265  0.96104016  0.71093519     0.10100
Cu808      Cu  0.28990089  0.94203890  0.72107007     0.44200
Cu809      Cu  0.34367935  0.94412595  0.70223725     0.42000
Cu810      Cu  0.22644670  0.94891932  0.70299975     0.43900
N811        N  0.22638287  0.94980211  0.72152216    -0.33600
N812        N  0.20178929  0.95295960  0.71498694    -0.27800
C813        C  0.16274669  0.96233932  0.71758903    -0.03900
C814        C  0.16356078  0.96555055  0.72614533     0.08300
C815        C  0.20436169  0.95746440  0.72835838     0.02100
H816        H  0.13650648  0.96906791  0.71355565     0.09800
H817        H  0.21764441  0.95922029  0.73448388     0.08800
N818        N  0.26232843  0.94345026  0.69218756    -0.35000
N819        N  0.30358589  0.94142117  0.69200872    -0.27200
C820        C  0.31599373  0.93766307  0.68413459    -0.02400
C821        C  0.28124549  0.93735192  0.67899430     0.06200
C822        C  0.24777266  0.94109446  0.68438231     0.04300
H823        H  0.34829654  0.93532925  0.68233475     0.09400
H824        H  0.21505797  0.94209901  0.68277423     0.08200
N825        N  0.19649885  0.89286291  0.60800789    -0.26200
N826        N  0.21948662  0.87540108  0.60219375    -0.34000
C827        C  0.19502136  0.86890587  0.59559879     0.02200
C828        C  0.15460140  0.88440598  0.59704139     0.08200
C829        C  0.15709756  0.89919869  0.60509318    -0.04900
H830        H  0.20694742  0.85723849  0.58981790     0.08900
H831        H  0.13310839  0.91654711  0.60832705     0.10100
Cu832      Cu  0.28568405  0.87108048  0.60249362     0.44200
Cu833      Cu  0.22355515  0.90922419  0.61930461     0.42000
Cu834      Cu  0.34106467  0.91005787  0.61969117     0.43900
N835        N  0.35103709  0.88045531  0.60236473    -0.33600
N836        N  0.37158947  0.89752827  0.60850195    -0.27800
C837        C  0.41022415  0.90749644  0.60586495    -0.03900
C838        C  0.41479309  0.89562749  0.59765095     0.08300
C839        C  0.37633719  0.87824497  0.59578822     0.02100
H840        H  0.43182290  0.92567926  0.60939076     0.09800
H841        H  0.36591681  0.86899048  0.58973385     0.08800
N842        N  0.30193264  0.91670264  0.63000476    -0.35000
N843        N  0.26065545  0.91668074  0.62988451    -0.27200
C844        C  0.24667436  0.92059656  0.63767483    -0.02400
C845        C  0.28049217  0.92320069  0.64302565     0.06200
C846        C  0.31491175  0.92059995  0.63786660     0.04300
H847        H  0.21407561  0.92099872  0.63930059     0.09400
H848        H  0.34734761  0.92104789  0.63966001     0.08200
C849        C  0.08310217  0.50896871  0.57727103    -0.09700
C850        C  0.10641821  0.51976066  0.58411353    -0.03600
C851        C  0.12354038  0.89607419  0.59031291    -0.09700
C852        C  0.07858110  0.89789411  0.59091401     0.11200
C853        C  0.01928605  0.51761328  0.58534414    -0.01500
C854        C  0.03976076  0.50659294  0.57788606     0.11000
C855        C  0.01648080  0.49390307  0.57107118    -0.11500
C856        C  0.48275093  0.49554892  0.57023809    -0.11500
C857        C  0.45944876  0.50535561  0.57726769     0.11000
C858        C  0.48003156  0.51688511  0.58466527    -0.01500
C859        C  0.05650681  0.88576475  0.59800709    -0.11600
C860        C  0.51255108  0.89339901  0.59772700    -0.11600
C861        C  0.48854535  0.91052182  0.59118040     0.11200
C862        C  0.44356077  0.91296489  0.59121119    -0.09700
C863        C  0.39276725  0.51324125  0.58392783    -0.03600
C864        C  0.41588631  0.50456206  0.57692311    -0.09700
H865        H  0.03110533  0.48416930  0.56538533     0.08500
H866        H  0.46815955  0.48563412  0.56457541     0.08500
H867        H  0.07325477  0.87430349  0.60338210     0.08700
H868        H  0.49730621  0.88163174  0.60315756     0.08700
H869        H  0.13994541  0.51985090  0.58342150     0.05100
H870        H  0.35919624  0.51146601  0.58341515     0.05100
C871        C  0.09204595  0.47114157  0.41293300    -0.09700
C872        C  0.11413300  0.48173301  0.40593840    -0.03600
C873        C  0.09429883  0.49527800  0.39861806    -0.09700
C874        C  0.04932222  0.49691490  0.39834779     0.11200
C875        C  0.02662927  0.48550441  0.40552078    -0.01500
C876        C  0.04840132  0.47195974  0.41273765     0.11000
C877        C  0.02615042  0.46058358  0.41976762    -0.11500
C878        C  0.48734842  0.49027829  0.42117600    -0.11500
C879        C  0.46390037  0.49752026  0.41399156     0.11000
C880        C  0.48433506  0.50595475  0.40642154    -0.01500
C881        C  0.02608956  0.51068326  0.39140224    -0.11600
C882        C  0.48242058  0.52335779  0.39185723    -0.11600
C883        C  0.46034864  0.51387069  0.39911733     0.11200
C884        C  0.41537092  0.51296030  0.39955380    -0.09700
C885        C  0.39707665  0.50349254  0.40720567    -0.03600
C886        C  0.42036642  0.49689435  0.41433602    -0.09700
H887        H  0.04168395  0.44869152  0.42525524     0.08500
H888        H  0.47292031  0.48309282  0.42700547     0.08500
H889        H  0.04200227  0.51980416  0.38584498     0.08700
H890        H  0.46565804  0.53039268  0.38620915     0.08700
H891        H  0.14785710  0.48052678  0.40633542     0.05100
H892        H  0.36357937  0.50159456  0.40774211     0.05100
C893        C  0.24288498  0.93194428  0.66533427    -0.12200
C894        C  0.28057636  0.93387708  0.66977953     0.09900
C895        C  0.28067879  0.49155568  0.66566776    -0.12200
C896        C  0.28315132  0.49123750  0.65704303    -0.12200
C897        C  0.28023586  0.92704482  0.65223537     0.09900
C898        C  0.24271594  0.92857496  0.65669776    -0.12200
H899        H  0.21335681  0.93290053  0.66850276     0.13900
H900        H  0.30936852  0.49163953  0.66917929     0.13900
H901        H  0.31361453  0.49113712  0.65424045     0.13900
H902        H  0.21303781  0.92711027  0.65354832     0.13900
C903        C  0.37722130  0.50028237  0.56249111    -0.12200
C904        C  0.39399692  0.49965268  0.56916341    -0.13700
C905        C  0.11978849  0.50404821  0.56268136    -0.12200
C906        C  0.10406653  0.50411028  0.56942291    -0.13700
C907        C  0.24868143  0.44594596  0.49954962    -0.12200
C908        C  0.25040178  0.44548576  0.49208829    -0.13700
C909        C  0.38222537  0.49410883  0.42881368    -0.12200
C910        C  0.39872029  0.49312318  0.42213850    -0.13700
C911        C  0.13168553  0.46755720  0.42725580    -0.12200
C912        C  0.11474909  0.46581405  0.42061911    -0.13700
C913        C  0.32784438  0.96030373  0.33302630    -0.12200
C914        C  0.29066914  0.96587535  0.33746712     0.09900
C915        C  0.25309083  0.96969487  0.33298343    -0.12200
C916        C  0.25278311  0.96851675  0.32433868    -0.12200
C917        C  0.29003602  0.96346235  0.31989709     0.09900
C918        C  0.32753773  0.95909661  0.32439469    -0.12200
H919        H  0.35744494  0.95686212  0.33618949     0.13900
H920        H  0.22372359  0.97406912  0.33611727     0.13900
H921        H  0.22322154  0.97195559  0.32116155     0.13900
H922        H  0.35697299  0.95482649  0.32128603     0.13900
C923        C  0.45941055  0.99118756  0.25335550    -0.15300
C924        C  0.46315761  0.97522694  0.26099352    -0.30500
H925        H  0.42867054  0.99745839  0.25075810     0.13700
H926        H  0.49356360  0.97276119  0.26393716     0.14300
C927        C  0.14454507  0.99802965  0.25648818    -0.15300
C928        C  0.10342451  0.99152136  0.25656072    -0.30500
H929        H  0.15834430  0.01206730  0.25109348     0.13700
H930        H  0.09017698  0.97374362  0.26156484     0.14300
C931        C  0.45025068  0.99185225  0.73616906    -0.15300
C932        C  0.45512995  0.97376475  0.72876622    -0.30500
H933        H  0.41903266  0.99790816  0.73846458     0.13700
H934        H  0.37897545  0.56967488  0.73586114     0.14300
C935        C  0.09034974  0.97850199  0.73055379    -0.15300
C936        C  0.13141168  0.98174177  0.73184899    -0.30500
H937        H  0.07917416  0.96124241  0.72528911     0.13700
H938        H  0.03557898  0.49387115  0.72608494     0.14300
C939        C  0.02959167  0.92681682  0.23559074    -0.15300
C940        C  0.04137525  0.91421936  0.22801627    -0.30500
H941        H  0.54842678  0.91027374  0.23872556     0.13700
H942        H  0.05994011  0.93404972  0.22416089     0.14300
C943        C  0.94721415  0.59353840  0.23186134    -0.15300
C944        C  0.96989792  0.59028001  0.23885708    -0.30500
H945        H  0.45774694  0.58604585  0.22559431     0.13700
H946        H  0.98608911  0.61722635  0.24110568     0.14300
C947        C  0.51827620  0.79768191  0.15475392    -0.12200
C948        C  0.98507839  0.74457902  0.15306562     0.09900
C949        C  0.97830101  0.70779125  0.15753489    -0.12200
C950        C  0.97907180  0.70748767  0.16618884    -0.12200
C951        C  0.98689191  0.74389643  0.17063571     0.09900
C952        C  0.52354349  0.79862381  0.16333882    -0.12200
H953        H  0.52572433  0.82502554  0.15121379     0.13900
H954        H  0.97203765  0.67912728  0.15437220     0.13900
H955        H  0.97378792  0.67854836  0.16937830     0.13900
H956        H  0.53461709  0.82677578  0.16611084     0.13900
C957        C  0.46103501  0.88945361  0.92723255    -0.12200
C958        C  0.46437485  0.90567791  0.92055571    -0.13700
C959        C  0.45666319  0.61848406  0.92087263    -0.12200
C960        C  0.45482599  0.63506622  0.92751729    -0.13700
C961        C  0.44063560  0.88344005  0.06149840    -0.12200
C962        C  0.44308235  0.90015063  0.06811344    -0.13700
C963        C  0.46907342  0.62133033  0.06866420    -0.12200
C964        C  0.46703702  0.63728828  0.06193655    -0.13700
C965        C  0.50384696  0.76125954  0.99084473    -0.12200
C966        C  0.50389160  0.76221072  0.99829991    -0.13700
C967        C  0.01373085  0.93192225  0.75987458    -0.15300
C968        C  0.00357914  0.93628647  0.75181624    -0.30500
H969        H  0.03023018  0.95618637  0.76303618     0.13700
H970        H  0.53625721  0.91106894  0.75040113     0.14300
C971        C  0.96215599  0.58119067  0.75845084    -0.15300
C972        C  0.95230892  0.62062395  0.75656500    -0.30500
H973        H  0.47850814  0.62981921  0.75146213     0.13700
H974        H  0.94934385  0.62992390  0.75014197     0.14300
C975        C  0.52675432  0.79741274  0.83439739    -0.12200
C976        C  0.01863986  0.74921254  0.83639570     0.09900
C977        C  0.01020567  0.71353010  0.83176675    -0.12200
C978        C  0.00923601  0.71498593  0.82312508    -0.12200
C979        C  0.01672478  0.75216250  0.81884019     0.09900
C980        C  0.53152087  0.79789552  0.82582130    -0.12200
H981        H  0.53516455  0.82464546  0.83784550     0.13900
H982        H  0.00356561  0.68448220  0.83479686     0.13900
H983        H  0.00212879  0.68690680  0.81983734     0.13900
H984        H  0.54340525  0.82553280  0.82295411     0.13900
N985        N  0.97955685  0.16069575  0.87929121    -0.26200
N986        N  0.95520784  0.18358441  0.88407716    -0.34000
C987        C  0.94174946  0.15943177  0.89024464     0.02200
C988        C  0.95979779  0.11945298  0.88970495     0.08200
C989        C  0.98351195  0.12180728  0.88253956    -0.04900
H990        H  0.92311482  0.17143394  0.89526307     0.08900
H991        H  0.00479108  0.09813769  0.88024269     0.10100
Cu992      Cu  0.95066182  0.24970380  0.88345443     0.44200
Cu993      Cu  0.45586091  0.20578603  0.86853468     0.42000
Cu994      Cu  0.45154377  0.32361845  0.86837661     0.43900
N995        N  0.96098524  0.31481839  0.88408601    -0.33600
N996        N  0.98584524  0.33479087  0.87904801    -0.27800
C997        C  0.99327998  0.37300765  0.88219454    -0.03900
C998        C  0.97147062  0.37801806  0.88956171     0.08300
C999        C  0.95101981  0.34023566  0.89036641     0.02100
H1000       H  0.01575086  0.39408768  0.87969989     0.09800
H1001       H  0.93351023  0.33028535  0.89566657     0.08800
N1002       N  0.45679734  0.28520395  0.85800547    -0.35000
N1003       N  0.45840870  0.24404763  0.85805707    -0.27200
C1004       C  0.45959229  0.23054206  0.85021544    -0.02400
C1005       C  0.45862652  0.26452381  0.84491469     0.06200
C1006       C  0.45686601  0.29858896  0.85013230     0.04300
H1007       H  0.46008930  0.19813123  0.84853240     0.09400
H1008       H  0.45517320  0.33098171  0.84838123     0.08200
N1009       N  0.43033397  0.35869393  0.77485115    -0.26200
N1010       N  0.43165466  0.33982218  0.76766587    -0.34000
C1011       C  0.43332542  0.36806888  0.76158992     0.02200
C1012       C  0.43303141  0.40695115  0.76512648     0.08200
C1013       C  0.43076588  0.39991756  0.77354037    -0.04900
H1014       H  0.43711953  0.36047054  0.75515348     0.08900
H1015       H  0.43235917  0.42291364  0.77835759     0.10100
Cu1016     Cu  0.43941198  0.27711419  0.76658539     0.44200
Cu1017     Cu  0.43529431  0.32580781  0.78587279     0.42000
Cu1018     Cu  0.46160491  0.21377487  0.78469110     0.43900
N1019       N  0.45909293  0.21656145  0.76607752    -0.33600
N1020       N  0.46790686  0.19273961  0.77253389    -0.27800
C1021       C  0.48184100  0.15556345  0.76977835    -0.03900
C1022       C  0.48176968  0.15669943  0.76119852     0.08300
C1023       C  0.46712520  0.19573962  0.75912241     0.02100
H1024       H  0.49136388  0.12992274  0.77373100     0.09800
H1025       H  0.46293266  0.20839369  0.75298021     0.08800
N1026       N  0.45458389  0.24689850  0.79572329    -0.35000
N1027       N  0.44523397  0.28706764  0.79601354    -0.27200
C1028       C  0.44399464  0.29919164  0.80391398    -0.02400
C1029       C  0.45294561  0.26525758  0.80896625     0.06200
C1030       C  0.45941520  0.23254663  0.80350529     0.04300
H1031       H  0.43712103  0.33073789  0.80577543     0.09400
H1032       H  0.46745648  0.20066755  0.80503886     0.08200
N1033       N  0.96535534  0.17078986  0.04243566    -0.26200
N1034       N  0.93566413  0.19204323  0.04627134    -0.34000
C1035       C  0.93274705  0.17840557  0.05406198     0.02200
C1036       C  0.96187283  0.14701742  0.05523651     0.08200
C1037       C  0.98211119  0.14261514  0.04775595    -0.04900
H1038       H  0.91350029  0.19291646  0.05873147     0.08900
H1039       H  0.00862097  0.12245469  0.04644556     0.10100
Cu1040     Cu  0.91250726  0.24854701  0.04231266     0.44200
Cu1041     Cu  0.98485168  0.18819869  0.03067542     0.42000
Cu1042     Cu  0.98882383  0.29969625  0.03062193     0.43900
N1043       N  0.93469211  0.30527380  0.04559410    -0.33600
N1044       N  0.96649159  0.32270567  0.04190726    -0.27800
C1045       C  0.98187004  0.35177541  0.04699846    -0.03900
C1046       C  0.95837588  0.35210683  0.05416179     0.08300
C1047       C  0.92888779  0.32239596  0.05302996     0.02100
H1048       H  0.00946218  0.36940194  0.04580082     0.09800
H1049       H  0.90744334  0.31112157  0.05759760     0.08800
N1050       N  0.99581111  0.26384367  0.01989681    -0.35000
N1051       N  0.99393485  0.22282504  0.01992685    -0.27200
C1052       C  0.99527117  0.20910246  0.01209101    -0.02400
C1053       C  0.99824975  0.24299789  0.00687731     0.06200
C1054       C  0.99848683  0.27717935  0.01202274     0.04300
H1055       H  0.99269717  0.17695275  0.01030898     0.09400
H1056       H  0.99886430  0.30944970  0.01016421     0.08200
N1057       N  0.94443262  0.17243739  0.94628670    -0.26200
N1058       N  0.91849262  0.19613597  0.94187909    -0.34000
C1059       C  0.91576306  0.18107551  0.93420066     0.02200
C1060       C  0.94107400  0.14616870  0.93371430     0.08200
C1061       C  0.95882642  0.14130803  0.94147025    -0.04900
H1062       H  0.90010424  0.19692538  0.92912816     0.08900
H1063       H  0.98283397  0.11893437  0.94327262     0.10100
Cu1064     Cu  0.90248806  0.25601244  0.94498994     0.44200
Cu1065     Cu  0.96479062  0.19003697  0.95801472     0.42000
Cu1066     Cu  0.98150701  0.29954205  0.95775681     0.43900
N1067       N  0.93272027  0.30925894  0.94198521    -0.33600
N1068       N  0.96490594  0.32334064  0.94615185    -0.27800
C1069       C  0.98601145  0.34918394  0.94120831    -0.03900
C1070       C  0.96591102  0.35086502  0.93363519     0.08300
C1071       C  0.93235239  0.32549689  0.93436283     0.02100
H1072       H  0.01525363  0.36316753  0.94280152     0.09800
H1073       H  0.91180845  0.31598485  0.92945155     0.08800
N1074       N  0.98665886  0.26365468  0.96851332    -0.35000
N1075       N  0.98030339  0.22321036  0.96862945    -0.27200
C1076       C  0.98326141  0.20937613  0.97647726    -0.02400
C1077       C  0.99192491  0.24266666  0.98152295     0.06200
C1078       C  0.99382308  0.27655552  0.97627629     0.01700
H1079       H  0.97838716  0.17766038  0.97839018     0.09400
H1080       H  0.99888611  0.30843943  0.97799698     0.08200
N1081       N  0.96133999  0.16452778  0.10989304    -0.26200
N1082       N  0.93861613  0.18610388  0.10449805    -0.34000
C1083       C  0.92946999  0.16110706  0.09815541     0.02200
C1084       C  0.94844987  0.12188429  0.09930489     0.08200
C1085       C  0.96827886  0.12560436  0.10693149    -0.04900
H1086       H  0.91392627  0.17214177  0.09260814     0.08900
H1087       H  0.98948139  0.10303896  0.10972990     0.10100
Cu1088     Cu  0.93114758  0.25189854  0.10472072     0.44200
Cu1089     Cu  0.98430195  0.19326208  0.12054312     0.42000
Cu1090     Cu  0.98480375  0.31001761  0.11997281     0.43900
N1091       N  0.93875605  0.31722921  0.10392435    -0.33600
N1092       N  0.96157365  0.33857311  0.10913016    -0.27800
C1093       C  0.96786788  0.37694289  0.10590358    -0.03900
C1094       C  0.94749380  0.38049972  0.09829647     0.08300
C1095       C  0.92900274  0.34179346  0.09743408     0.02100
H1096       H  0.98870566  0.39922739  0.10854549     0.09800
H1097       H  0.91287720  0.33078948  0.09203050     0.08800
N1098       N  0.47383974  0.27684923  0.12833649    -0.35000
N1099       N  0.47290643  0.23578273  0.12836946    -0.27200
C1100       C  0.47904047  0.22199675  0.13614314    -0.02400
C1101       C  0.48396379  0.25586004  0.14129482     0.06200
C1102       C  0.48056776  0.29001345  0.13606472     0.04300
H1103       H  0.47840601  0.18964451  0.13791892     0.09400
H1104       H  0.48172809  0.32239092  0.13772542     0.08200
N1105       N  0.49595352  0.18003615  0.21295693    -0.26200
N1106       N  0.50564218  0.20173351  0.21955890    -0.34000
C1107       C  0.51104941  0.17590080  0.22601182     0.02200
C1108       C  0.50402216  0.13597076  0.22336958     0.08200
C1109       C  0.49424774  0.13969918  0.21508685    -0.04900
H1110       H  0.51871210  0.18569082  0.23219085     0.08900
H1111       H  0.48734750  0.11482464  0.21087827     0.10100
Cu1112     Cu  0.50850294  0.26552715  0.21975057     0.44200
Cu1113     Cu  0.48893577  0.20614553  0.20126343     0.42000
Cu1114     Cu  0.49972165  0.31816295  0.20030147     0.43900
N1115       N  0.50185370  0.32906056  0.21868257    -0.33600
N1116       N  0.49828932  0.34865454  0.21153958    -0.27800
C1117       C  0.49305742  0.38952296  0.21294640    -0.03900
C1118       C  0.49337820  0.39582826  0.22137100     0.08300
C1119       C  0.49899953  0.35675079  0.22482463     0.02100
H1120       H  0.48932210  0.41296172  0.20818495     0.09800
H1121       H  0.50078609  0.34874103  0.23129493     0.08800
N1122       N  0.49754642  0.28023096  0.19000651    -0.35000
N1123       N  0.49262556  0.23965083  0.19030222    -0.27200
C1124       C  0.49133034  0.22493150  0.18255559    -0.02400
C1125       C  0.49556253  0.25785304  0.17708688     0.06200
C1126       C  0.49955168  0.29236740  0.18209129     0.04300
H1127       H  0.48704229  0.19266319  0.18105124     0.09400
H1128       H  0.50336817  0.32420859  0.18017336     0.08200
C1129       C  0.97554049  0.08992625  0.07761803    -0.09700
C1130       C  0.96650341  0.11199520  0.08472707    -0.03600
C1131       C  0.95907000  0.09236594  0.09235532    -0.09700
C1132       C  0.96112754  0.04744287  0.09269783     0.11200
C1133       C  0.97202413  0.02487440  0.08543665    -0.01500
C1134       C  0.98010606  0.04663875  0.07798407     0.11000
C1135       C  0.99196587  0.02469790  0.07091868    -0.11500
C1136       C  0.98162172  0.47747653  0.06937484    -0.11500
C1137       C  0.97231548  0.45549536  0.07657268     0.11000
C1138       C  0.96649736  0.47717638  0.08412483    -0.01500
C1139       C  0.95143483  0.02403299  0.09979534    -0.11600
C1140       C  0.95001051  0.47808042  0.09869696    -0.11600
C1141       C  0.95777131  0.45466777  0.09149892     0.11200
C1142       C  0.95584497  0.40985639  0.09119513    -0.09700
C1143       C  0.96136038  0.39027143  0.08349571    -0.03600
C1144       C  0.96835804  0.41227196  0.07627106    -0.09700
H1145       H  0.99970648  0.04034891  0.06523230     0.08500
H1146       H  0.98715432  0.46193732  0.06357295     0.08500
H1147       H  0.94247662  0.03975933  0.10540814     0.08700
H1148       H  0.94243004  0.46246762  0.10438905     0.08700
H1149       H  0.96495387  0.14551572  0.08419788     0.05100
H1150       H  0.96021287  0.35680866  0.08301859     0.05100
C1151       C  0.96667741  0.08644147  0.91202936    -0.09700
C1152       C  0.96373264  0.10864823  0.90471207    -0.03600
C1153       C  0.96418177  0.08941831  0.89691266    -0.09700
C1154       C  0.96823554  0.04452164  0.89664829     0.11200
C1155       C  0.97353496  0.02188137  0.90419629    -0.01500
C1156       C  0.97339711  0.04339262  0.91183786     0.11000
C1157       C  0.97970476  0.02147770  0.91922428    -0.11500
C1158       C  0.99715361  0.47195235  0.91912888    -0.11500
C1159       C  0.99162182  0.45080008  0.91169015     0.11000
C1160       C  0.98774235  0.47339558  0.90416694    -0.01500
C1161       C  0.96586838  0.02110907  0.88931866    -0.11600
C1162       C  0.97629059  0.47596986  0.88938258    -0.11600
C1163       C  0.98174105  0.45168757  0.89659444     0.11200
C1164       C  0.98015933  0.40675509  0.89672028    -0.09700
C1165       C  0.98490129  0.38624562  0.90437767    -0.03600
C1166       C  0.98923702  0.40745747  0.91173791    -0.09700
H1167       H  0.98076539  0.03700080  0.92511860     0.08500
H1168       H  0.00093043  0.45572196  0.92494742     0.08500
H1169       H  0.96091972  0.03672388  0.88347193     0.08700
H1170       H  0.97113666  0.46100663  0.88352535     0.08700
H1171       H  0.96113293  0.14206148  0.90523671     0.05100
H1172       H  0.98427141  0.35267522  0.90472472     0.05100
C1173       C  0.51630007  0.05229020  0.75151078     0.87600
C1174       C  0.99040894  0.04898252  0.73879619    -0.52600
C1175       C  0.98496654  0.01187832  0.73490389     0.10500
C1176       C  0.47932287  0.49453940  0.74040491     0.21500
C1177       C  0.53004484  0.01251103  0.75590852    -0.53300
C1178       C  0.46655900  0.49049393  0.74954318     0.10600
C1179       C  0.55038461  0.06000159  0.74514375    -0.52900
C1180       C  0.55740785  0.02744285  0.73989727     0.11200
H1181       H  0.97180265  0.07673599  0.73745310     0.15700
H1182       H  0.47559131  0.46560985  0.73680950     0.01500
H1183       H  0.53146741  0.01046459  0.76257420     0.16000
H1184       H  0.56772659  0.08851150  0.74487426     0.15800
C1185       C  0.53300871  0.05333653  0.23989272     0.87600
C1186       C  0.00985221  0.05015809  0.24235731    -0.52600
C1187       C  0.94939988  0.49400510  0.25153421     0.10500
C1188       C  0.48234914  0.48575130  0.24725741     0.21500
C1189       C  0.56589104  0.05338612  0.24676814    -0.53300
C1190       C  0.51948492  0.51008606  0.25049902     0.10600
C1191       C  0.49613904  0.51846515  0.23404413    -0.52900
C1192       C  0.48994846  0.48143738  0.23793684     0.11200
H1193       H  0.98971633  0.07747181  0.24160870     0.15700
H1194       H  0.47816091  0.45556663  0.25043878     0.01500
H1195       H  0.58446947  0.08029092  0.24807077     0.16000
H1196       H  0.50348890  0.52128324  0.22755966     0.15800
N1197       N  0.84204100  0.51125444  0.38137784    -0.26200
N1198       N  0.82041200  0.53264965  0.38688034    -0.34000
C1199       C  0.84518309  0.53930923  0.39343485     0.02200
C1200       C  0.88429827  0.52010636  0.39228105     0.08200
C1201       C  0.88077705  0.50279202  0.38444859    -0.04900
H1202       H  0.83407642  0.55373344  0.39903396     0.08900
H1203       H  0.90334101  0.48233739  0.38152611     0.10100
Cu1204     Cu  0.75461240  0.54214491  0.38631393     0.44200
Cu1205     Cu  0.81360890  0.49227626  0.37037374     0.42000
Cu1206     Cu  0.69629130  0.49244968  0.37064155     0.43900
N1207       N  0.68874364  0.53626789  0.38671759    -0.33600
N1208       N  0.66734450  0.51415695  0.38140912    -0.27800
C1209       C  0.62863780  0.50794049  0.38446830    -0.03900
C1210       C  0.62485561  0.52774618  0.39206991     0.08300
C1211       C  0.66378441  0.54593507  0.39308341     0.02100
H1212       H  0.60629289  0.48746157  0.38172705     0.09800
H1213       H  0.67475144  0.56143431  0.39855075     0.08800
N1214       N  0.73371364  0.48349239  0.36018268    -0.35000
N1215       N  0.77498389  0.48342551  0.36004628    -0.27200
C1216       C  0.78765014  0.47967484  0.35216379    -0.02400
C1217       C  0.75293777  0.47746457  0.34703593     0.06200
C1218       C  0.71941257  0.47990110  0.35240665     0.04300
H1219       H  0.81990377  0.47999987  0.35029824     0.09400
H1220       H  0.68670479  0.47994612  0.35080419     0.08200
N1221       N  0.81475793  0.45279803  0.27420714    -0.26200
N1222       N  0.78815787  0.44835855  0.26804284    -0.34000
C1223       C  0.80803318  0.45298533  0.26085899     0.02200
C1224       C  0.84932515  0.46041858  0.26247112     0.08200
C1225       C  0.85273460  0.45986759  0.27101879    -0.04900
H1226       H  0.79272671  0.45448204  0.25490648     0.08900
H1227       H  0.87972357  0.46802593  0.27462684     0.10100
Cu1228     Cu  0.72438836  0.44786369  0.26926669     0.44200
Cu1229     Cu  0.79507928  0.45774811  0.28651529     0.42000
Cu1230     Cu  0.68486759  0.48944044  0.28795022     0.43900
N1231       N  0.66431713  0.47075213  0.27036104    -0.33600
N1232       N  0.65047838  0.48961690  0.27704562    -0.27800
C1233       C  0.61308077  0.50758453  0.27534918    -0.03900
C1234       C  0.60279583  0.49864616  0.26726773     0.08300
C1235       C  0.63601975  0.47536778  0.26429428     0.02100
H1236       H  0.59508034  0.52624597  0.27962658     0.09800
H1237       H  0.64060429  0.46504576  0.25802440     0.08800
N1238       N  0.72386928  0.47930546  0.29809688    -0.35000
N1239       N  0.76353519  0.46751638  0.29770254    -0.27200
C1240       C  0.77862577  0.46345527  0.30545690    -0.02400
C1241       C  0.74696253  0.47305440  0.31102166     0.06200
C1242       C  0.71279477  0.48289436  0.30604322     0.04300
H1243       H  0.81036516  0.45411022  0.30691055     0.09400
H1244       H  0.68188339  0.49221119  0.30799738     0.08200
N1245       N  0.86809215  0.99975592  0.44816950    -0.26200
N1246       N  0.84892401  0.03290346  0.44499391    -0.34000
C1247       C  0.86586894  0.04217593  0.43769824     0.02200
C1248       C  0.89718419  0.01354910  0.43614147     0.08200
C1249       C  0.89808329  0.98698644  0.44289755    -0.04900
H1250       H  0.85316382  0.06511256  0.43343133     0.08900
H1251       H  0.91678792  0.95884164  0.44362171     0.10100
Cu1252     Cu  0.79049359  0.05256066  0.44848812     0.44200
Cu1253     Cu  0.84564875  0.97142471  0.45883404     0.42000
Cu1254     Cu  0.73284515  0.97700804  0.45923105     0.43900
N1255       N  0.73295318  0.03399565  0.44463561    -0.33600
N1256       N  0.71270166  0.00331619  0.44810864    -0.27800
C1257       C  0.68426596  0.98950623  0.44268976    -0.03900
C1258       C  0.68738667  0.01265572  0.43551721     0.08300
C1259       C  0.71828144  0.04051804  0.43697455     0.02100
H1260       H  0.66552715  0.96243780  0.44362562     0.09800
H1261       H  0.73245112  0.06061371  0.43248361     0.08800
N1262       N  0.76933201  0.96205979  0.46954520    -0.35000
N1263       N  0.81054565  0.95968816  0.46938839    -0.27200
C1264       C  0.82492764  0.95435414  0.47714926    -0.02400
C1265       C  0.79125201  0.95336715  0.48241255     0.06200
C1266       C  0.75652687  0.95834067  0.47740220     0.04300
H1267       H  0.85751176  0.95370216  0.47887615     0.09400
H1268       H  0.72446524  0.96137374  0.47936194     0.08200
N1269       N  0.70893565  0.97483377  0.54282803    -0.26200
N1270       N  0.72580160  0.00229083  0.54777924    -0.34000
C1271       C  0.70816305  0.99998866  0.55523902     0.02200
C1272       C  0.67863764  0.96978109  0.55500277     0.08200
C1273       C  0.67969569  0.95430352  0.54705358    -0.04900
H1274       H  0.71890417  0.01623618  0.56063635     0.08900
H1275       H  0.66270996  0.92825751  0.54470297     0.10100
Cu1276     Cu  0.78185735  0.02930614  0.54551563     0.44200
Cu1277     Cu  0.73320824  0.96294674  0.53114030     0.42000
Cu1278     Cu  0.84502579  0.96953232  0.53171667     0.43900
N1279       N  0.84102827  0.00898964  0.54843514    -0.33600
N1280       N  0.86310191  0.98318512  0.54378729    -0.27800
C1281       C  0.89212997  0.96387859  0.54857548    -0.03900
C1282       C  0.88758661  0.97843678  0.55654824     0.08300
C1283       C  0.85521946  0.00698508  0.55621816     0.02100
H1284       H  0.91229337  0.93856023  0.54657729     0.09800
H1285       H  0.83966093  0.02121148  0.56141992     0.08800
N1286       N  0.81124158  0.96223970  0.52077616    -0.35000
N1287       N  0.77014869  0.95978030  0.52059546    -0.27200
C1288       C  0.75740315  0.95651392  0.51270624    -0.02400
C1289       C  0.79204773  0.95684408  0.50769642     0.06200
C1290       C  0.82566016  0.96059070  0.51299119     0.04300
H1291       H  0.72524549  0.95451386  0.51076233     0.09400
H1292       H  0.85811699  0.96243100  0.51131291     0.08200
N1293       N  0.81337763  0.47275558  0.71661928    -0.26200
N1294       N  0.78835749  0.46504112  0.72285012    -0.34000
C1295       C  0.80851848  0.47084590  0.72997890     0.02200
C1296       C  0.84852436  0.48232095  0.72827313     0.08200
C1297       C  0.85088552  0.48320436  0.71971479    -0.04900
H1298       H  0.79439403  0.46859572  0.73599665     0.08900
H1299       H  0.87691740  0.49306851  0.71605036     0.10100
Cu1300     Cu  0.72614429  0.45293324  0.72180220     0.44200
Cu1301     Cu  0.79115175  0.47308213  0.70441037     0.42000
Cu1302     Cu  0.67514236  0.46612091  0.70271990     0.43900
N1303       N  0.66245090  0.45562875  0.72082457    -0.33600
N1304       N  0.64249120  0.46164449  0.71378058    -0.27800
C1305       C  0.60165451  0.46798595  0.71538543    -0.03900
C1306       C  0.59610283  0.46634515  0.72386096     0.08300
C1307       C  0.63542692  0.45811438  0.72707496     0.02100
H1308       H  0.57825721  0.47600933  0.71079273     0.09800
H1309       H  0.64440475  0.45639708  0.73349916     0.08800
N1310       N  0.71596577  0.47099646  0.69277661    -0.35000
N1311       N  0.75701307  0.47345508  0.69330143    -0.27200
C1312       C  0.77246930  0.47689766  0.68562071    -0.02400
C1313       C  0.73977083  0.47667803  0.67995253     0.06200
C1314       C  0.70452047  0.47281123  0.68479191     0.04300
H1315       H  0.80521469  0.47986455  0.68430197     0.09400
H1316       H  0.67254849  0.47169007  0.68271590     0.08200
N1317       N  0.66203171  0.53807500  0.60950718    -0.26200
N1318       N  0.68312414  0.55948819  0.60403863    -0.34000
C1319       C  0.65825100  0.56686880  0.59747133     0.02200
C1320       C  0.61978895  0.54797940  0.59858666     0.08200
C1321       C  0.62369155  0.53019486  0.60640590    -0.04900
H1322       H  0.66904806  0.58117171  0.59185670     0.08900
H1323       H  0.60186867  0.50966363  0.60928528     0.10100
Cu1324     Cu  0.74872004  0.56730466  0.60466220     0.44200
Cu1325     Cu  0.69051480  0.51804652  0.62049771     0.42000
Cu1326     Cu  0.80714292  0.52022035  0.62124130     0.43900
N1327       N  0.81470480  0.55917448  0.60455385    -0.33600
N1328       N  0.83613426  0.53860238  0.61029247    -0.27800
C1329       C  0.87499080  0.52971752  0.60742864    -0.03900
C1330       C  0.87884240  0.54598550  0.59949503     0.08300
C1331       C  0.83979308  0.56503351  0.59806024     0.02100
H1332       H  0.89726659  0.50932962  0.61053984     0.09800
H1333       H  0.82881047  0.57793639  0.59225685     0.08800
N1334       N  0.76841331  0.50894697  0.63136926    -0.35000
N1335       N  0.72722386  0.50789115  0.63106129    -0.27200
C1336       C  0.71272679  0.50114332  0.63871026    -0.02400
C1337       C  0.74610768  0.49775797  0.64418114     0.06200
C1338       C  0.78089022  0.50292919  0.63924058     0.04300
H1339       H  0.67999924  0.49947760  0.64015119     0.09400
H1340       H  0.81309644  0.50292337  0.64120365     0.08200
C1341       C  0.61879277  0.93030263  0.57573924    -0.09700
C1342       C  0.64201731  0.91485127  0.58235760    -0.03600
C1343       C  0.59109411  0.53578335  0.59163398    -0.09700
C1344       C  0.54632119  0.53228529  0.59193204     0.11200
C1345       C  0.55490480  0.92174358  0.58371093    -0.01500
C1346       C  0.57537753  0.93476999  0.57641775     0.11000
C1347       C  0.55203901  0.95208524  0.56988600    -0.11500
C1348       C  0.00876512  0.94040961  0.57010721    -0.11500
C1349       C  0.98742574  0.92918514  0.57725625     0.11000
C1350       C  0.01003617  0.91431447  0.58427439    -0.01500
C1351       C  0.52233863  0.54187524  0.59897291    -0.11600
C1352       C  0.97685190  0.54228488  0.59971076    -0.11600
C1353       C  0.95279000  0.53029963  0.59284627     0.11200
C1354       C  0.90773214  0.53152653  0.59270645    -0.09700
C1355       C  0.92260096  0.92021469  0.58440761    -0.03600
C1356       C  0.94387120  0.93248050  0.57742648    -0.09700
H1357       H  0.56658832  0.96289715  0.56429886     0.08500
H1358       H  0.99276605  0.95196674  0.56464963     0.08500
H1359       H  0.53744344  0.55213974  0.60454873     0.08700
H1360       H  0.96160341  0.55249570  0.60529569     0.08700
H1361       H  0.67556432  0.91370343  0.58169330     0.05100
H1362       H  0.88892178  0.92345765  0.58430986     0.05100
C1363       C  0.63325579  0.99830054  0.41293289    -0.09700
C1364       C  0.65465658  0.00780885  0.40579673    -0.03600
C1365       C  0.63447349  0.01339232  0.39811229    -0.09700
C1366       C  0.58972640  0.00927240  0.39777543     0.11200
C1367       C  0.56806803  0.99778809  0.40507919    -0.01500
C1368       C  0.59046697  0.99125857  0.41256852     0.11000
C1369       C  0.56956322  0.97853236  0.41966863    -0.11500
C1370       C  0.02136899  0.99448656  0.42061242    -0.11500
C1371       C  0.99858750  0.00303334  0.41339103     0.11000
C1372       C  0.01966501  0.00757292  0.40575713    -0.01500
C1373       C  0.56550227  0.01754254  0.39063593    -0.11600
C1374       C  0.01923992  0.02231824  0.39107852    -0.11600
C1375       C  0.99640350  0.01594896  0.39838219     0.11200
C1376       C  0.95143056  0.01879154  0.39877841    -0.09700
C1377       C  0.93239912  0.01412987  0.40654398    -0.03600
C1378       C  0.95513348  0.00733588  0.41374548    -0.09700
H1379       H  0.58591832  0.97176486  0.42538539     0.08500
H1380       H  0.00638214  0.99016324  0.42649945     0.08500
H1381       H  0.58042704  0.02701894  0.38499589     0.08700
H1382       H  0.00309211  0.02974768  0.38537889     0.08700
H1383       H  0.68803680  0.01102670  0.40634994     0.05100
H1384       H  0.89881735  0.01556622  0.40709262     0.05100
C1385       C  0.70490516  0.48309005  0.66599678    -0.12200
C1386       C  0.74162960  0.48098980  0.67077060     0.09900
C1387       C  0.80789611  0.93530041  0.66496018    -0.12200
C1388       C  0.81020922  0.93143361  0.65638455    -0.12200
C1389       C  0.74468930  0.49135602  0.65332175     0.09900
C1390       C  0.70640640  0.48819471  0.65742649    -0.12200
H1391       H  0.67467927  0.48117536  0.66884781     0.13900
H1392       H  0.83659935  0.93880422  0.66836355     0.13900
H1393       H  0.84054599  0.93214137  0.65354534     0.13900
H1394       H  0.67729287  0.48991780  0.65405936     0.13900
C1395       C  0.90527544  0.96106641  0.56399693    -0.12200
C1396       C  0.92048026  0.94767231  0.57031654    -0.13700
C1397       C  0.65733300  0.95350453  0.56206012    -0.12200
C1398       C  0.64051028  0.94209378  0.56828725    -0.13700
C1399       C  0.79264295  0.95477994  0.49879024    -0.12200
C1400       C  0.79229498  0.95354179  0.49132849    -0.13700
C1401       C  0.91747220  0.00826646  0.42830563    -0.12200
C1402       C  0.93330059  0.00669178  0.42156930    -0.13700
C1403       C  0.66961957  0.00420987  0.42756888    -0.12200
C1404       C  0.65499644  0.99985296  0.42077259    -0.13700
C1405       C  0.78795978  0.46769774  0.33320008    -0.12200
C1406       C  0.75163719  0.47548728  0.33781807     0.09900
C1407       C  0.71388671  0.48186152  0.33351193    -0.12200
C1408       C  0.71247378  0.48083126  0.32488936    -0.12200
C1409       C  0.74876087  0.47333019  0.32024981     0.09900
C1410       C  0.78653128  0.46655721  0.32454657    -0.12200
H1411       H  0.81763026  0.46235910  0.33625238     0.13900
H1412       H  0.68518834  0.48815743  0.33677144     0.13900
H1413       H  0.68265196  0.48601641  0.32190012     0.13900
H1414       H  0.81519848  0.46065718  0.32124715     0.13900
C1415       C  0.92044874  0.47410999  0.25738578    -0.15300
C1416       C  0.87901001  0.47614909  0.25633637    -0.30500
H1417       H  0.93366817  0.45749646  0.26265345     0.13700
H1418       H  0.86608947  0.48979495  0.25072092     0.14300
C1419       C  0.56730652  0.51523156  0.26240024    -0.15300
C1420       C  0.54989228  0.49240385  0.25647149    -0.30500
H1421       H  0.55609461  0.54673631  0.26354012     0.13700
H1422       H  0.55874391  0.45983222  0.25584373     0.14300
C1423       C  0.91975699  0.49573700  0.73359564    -0.15300
C1424       C  0.87832166  0.49617699  0.73457838    -0.30500
H1425       H  0.93335040  0.48332208  0.72798855     0.13700
H1426       H  0.91162432  0.05226249  0.73268497     0.14300
C1427       C  0.56015645  0.49131857  0.73630337    -0.15300
C1428       C  0.55792637  0.47793818  0.72848182    -0.30500
H1429       H  0.59028417  0.49356187  0.73930735     0.13700
H1430       H  0.56996035  0.98094661  0.72592675     0.14300
C1431       C  0.49164258  0.44049429  0.23377312    -0.15300
C1432       C  0.48953818  0.43631312  0.22553020    -0.30500
H1433       H  0.02700856  0.41351259  0.24003722     0.13700
H1434       H  0.48509764  0.46331041  0.22158661     0.14300
C1435       C  0.50612506  0.09732840  0.22825299    -0.15300
C1436       C  0.52987484  0.09351474  0.23507502    -0.30500
H1437       H  0.06507769  0.12524021  0.23984252     0.13700
H1438       H  0.54836136  0.11944890  0.23707617     0.14300
C1439       C  0.02500148  0.29200863  0.15663722    -0.12200
C1440       C  0.48858226  0.25601600  0.15044538     0.09900
C1441       C  0.49328799  0.21878556  0.15496386    -0.12200
C1442       C  0.49602356  0.21926108  0.16358859    -0.12200
C1443       C  0.49418117  0.25697498  0.16791562     0.09900
C1444       C  0.03159684  0.29328146  0.16517846    -0.12200
H1445       H  0.02375631  0.32107071  0.15328545     0.13900
H1446       H  0.49470193  0.18914990  0.15187049     0.13900
H1447       H  0.49952914  0.19000499  0.16684161     0.13900
H1448       H  0.03531204  0.32325472  0.16801902     0.13900
C1449       C  0.97976688  0.36898367  0.92604417    -0.12200
C1450       C  0.98661306  0.38450502  0.91942018    -0.13700
C1451       C  0.96025612  0.10844748  0.91973166    -0.12200
C1452       C  0.95249112  0.12510587  0.92621799    -0.13700
C1453       C  0.96602677  0.37333154  0.06182613    -0.12200
C1454       C  0.96873396  0.39001821  0.06847293    -0.13700
C1455       C  0.97575788  0.11196600  0.06978805    -0.12200
C1456       C  0.97177011  0.12764742  0.06304307    -0.13700
C1457       C  0.99516918  0.24268571  0.99045151    -0.12200
C1458       C  0.99706822  0.24290288  0.99792917    -0.13700
C1459       C  0.44068628  0.44719971  0.76114915    -0.15300
C1460       C  0.45272033  0.45082147  0.75322786    -0.30500
H1461       H  0.43852227  0.47395960  0.76512408     0.13700
H1462       H  0.99813489  0.40789457  0.74941096     0.14300
C1463       C  0.50826363  0.08691640  0.75756317    -0.15300
C1464       C  0.49344830  0.12421808  0.75521668    -0.30500
H1465       H  0.01089387  0.11537694  0.74748068     0.13700
H1466       H  0.48858431  0.13072182  0.74870190     0.14300
C1467       C  0.04612292  0.27910472  0.83198353    -0.12200
C1468       C  0.45794844  0.26450544  0.83570573     0.09900
C1469       C  0.46354552  0.22745783  0.83123639    -0.12200
C1470       C  0.46220439  0.22759354  0.82259186    -0.12200
C1471       C  0.45516532  0.26477170  0.81816763     0.09900
C1472       C  0.04828502  0.27927415  0.82335801    -0.12200
H1473       H  0.05209105  0.30764365  0.83521370     0.13900
H1474       H  0.46900813  0.19818684  0.83438734     0.13900
H1475       H  0.46645871  0.19842221  0.81940659     0.13900
H1476       H  0.05587723  0.30791737  0.82026796     0.13900
N1477       N  0.98574129  0.66037079  0.87995799    -0.26200
N1478       N  0.96444313  0.68235204  0.88542006    -0.34000
C1479       C  0.95601725  0.65748843  0.89184821     0.02200
C1480       C  0.97394854  0.61790823  0.89067140     0.08200
C1481       C  0.99252532  0.62128547  0.88294877    -0.04900
H1482       H  0.94097439  0.66858194  0.89738781     0.08900
H1483       H  0.01230316  0.59816824  0.88001863     0.10100
Cu1484     Cu  0.95657565  0.74823204  0.88495017     0.44200
Cu1485     Cu  0.47966520  0.70401605  0.87056840     0.42000
Cu1486     Cu  0.48086260  0.82059593  0.87047885     0.43900
N1487       N  0.96265572  0.81399838  0.88529359    -0.33600
N1488       N  0.98418694  0.83525445  0.87987013    -0.27800
C1489       C  0.98957900  0.87437710  0.88273803    -0.03900
C1490       C  0.96976941  0.87860082  0.89033071     0.08300
C1491       C  0.95269371  0.83939631  0.89156970     0.02100
H1492       H  0.00923444  0.89692138  0.87983662     0.09800
H1493       H  0.93742975  0.82887140  0.89709870     0.08800
N1494       N  0.49453972  0.78249836  0.86042020    -0.35000
N1495       N  0.49379688  0.74139638  0.86041673    -0.27200
C1496       C  0.50062329  0.72788966  0.85269056    -0.02400
C1497       C  0.50599319  0.76190232  0.84755414     0.06200
C1498       C  0.50204983  0.79591692  0.85271473     0.04300
H1499       H  0.50080384  0.69555511  0.85093657     0.09400
H1500       H  0.50276847  0.82830249  0.85095560     0.08200
N1501       N  0.55048437  0.84698116  0.77670129    -0.26200
N1502       N  0.54048627  0.82773615  0.76982681    -0.34000
C1503       C  0.54400656  0.85367883  0.76338900     0.02200
C1504       C  0.55705822  0.89130850  0.76633036     0.08200
C1505       C  0.56091670  0.88602316  0.77478235    -0.04900
H1506       H  0.53663406  0.84575261  0.75708997     0.08900
H1507       H  0.56897673  0.90940703  0.77923910     0.10100
Cu1508     Cu  0.52277200  0.76735596  0.76936716     0.44200
Cu1509     Cu  0.54631286  0.81941342  0.78835006     0.42000
Cu1510     Cu  0.52403104  0.70870474  0.78816178     0.43900
N1511       N  0.51727097  0.70440036  0.76975949    -0.33600
N1512       N  0.51950969  0.68198161  0.77658440    -0.27800
C1513       C  0.51840476  0.64156404  0.77456314    -0.03900
C1514       C  0.51485818  0.63893603  0.76608493     0.08300
C1515       C  0.51426949  0.67931504  0.76324366     0.02100
H1516       H  0.51978042  0.61608375  0.77893019     0.09800
H1517       H  0.51298793  0.68982161  0.75690546     0.08800
N1518       N  0.52764797  0.74402316  0.79880767    -0.35000
N1519       N  0.53601602  0.78399435  0.79895120    -0.27200
C1520       C  0.53537281  0.79698176  0.80683095    -0.02400
C1521       C  0.52602570  0.76362542  0.81191962     0.06200
C1522       C  0.52138923  0.73064059  0.80654927     0.04300
H1523       H  0.54073011  0.82861371  0.80867139     0.09400
H1524       H  0.51395179  0.69902374  0.80809691     0.08200
N1525       N  0.97140839  0.67803462  0.04235637    -0.26200
N1526       N  0.94284650  0.69881099  0.04659000    -0.34000
C1527       C  0.93940813  0.68184344  0.05410477     0.02200
C1528       C  0.96701994  0.64874627  0.05465768     0.08200
C1529       C  0.98690196  0.64681471  0.04711426    -0.04900
H1530       H  0.92111614  0.69511481  0.05905511     0.08900
H1531       H  0.01250481  0.62624798  0.04542224     0.10100
Cu1532     Cu  0.92265254  0.75773895  0.04360456     0.44200
Cu1533     Cu  0.99150910  0.69977000  0.03097248     0.42000
Cu1534     Cu  0.99453030  0.81213863  0.03117338     0.43900
N1535       N  0.94623685  0.81371517  0.04693427    -0.33600
N1536       N  0.97593280  0.83263495  0.04286556    -0.27800
C1537       C  0.99301622  0.86089462  0.04791370    -0.03900
C1538       C  0.97293655  0.85892090  0.05544868     0.08300
C1539       C  0.94358665  0.82895109  0.05458576     0.02100
H1540       H  0.01959720  0.87941698  0.04639876     0.09800
H1541       H  0.92439910  0.81631253  0.05940267     0.08800
N1542       N  0.00226181  0.77664671  0.02044725    -0.35000
N1543       N  0.00122456  0.73557285  0.02044267    -0.27200
C1544       C  0.00429402  0.72193775  0.01263251    -0.02400
C1545       C  0.00747258  0.75588576  0.00746522     0.06200
C1546       C  0.00603035  0.79010615  0.01260174     0.04300
H1547       H  0.00298312  0.68971565  0.01083178     0.09400
H1548       H  0.00641262  0.82239963  0.01075710     0.08200
N1549       N  0.98063101  0.67116407  0.94689292    -0.26200
N1550       N  0.95121212  0.69033448  0.94249284    -0.34000
C1551       C  0.94915058  0.67346170  0.93496969     0.02200
C1552       C  0.97856986  0.64194998  0.93451689     0.08200
C1553       C  0.99814826  0.64098714  0.94218550    -0.04900
H1554       H  0.93021610  0.68578991  0.92995335     0.08900
H1555       H  0.02460700  0.62163763  0.94401478     0.10100
Cu1556     Cu  0.92713679  0.74778939  0.94534500     0.44200
Cu1557     Cu  0.99726635  0.69407342  0.95857361     0.42000
Cu1558     Cu  0.99157178  0.80722737  0.95837793     0.43900
N1559       N  0.94714121  0.80553029  0.94218064    -0.33600
N1560       N  0.97377711  0.82683896  0.94661143    -0.27800
C1561       C  0.98979037  0.85670390  0.94179971    -0.03900
C1562       C  0.97236286  0.85323531  0.93401730     0.08300
C1563       C  0.94558400  0.82073583  0.93448441     0.02100
H1564       H  0.01422840  0.87728720  0.94365608     0.09800
H1565       H  0.92917256  0.80662105  0.92941875     0.08800
N1566       N  0.00095516  0.77208783  0.96906695    -0.35000
N1567       N  0.00289798  0.73095789  0.96921377    -0.27200
C1568       C  0.00662751  0.71822443  0.97712889    -0.02400
C1569       C  0.00714858  0.75291399  0.98214114     0.06200
C1570       C  0.00344245  0.78643505  0.97683422     0.01700
H1571       H  0.00787019  0.68610680  0.97910097     0.09400
H1572       H  0.00160955  0.81889188  0.97850101     0.08200
N1573       N  0.95747973  0.66230203  0.10877951    -0.26200
N1574       N  0.93866773  0.68493096  0.10298711    -0.34000
C1575       C  0.93246897  0.66048985  0.09641090     0.02200
C1576       C  0.94935742  0.62052509  0.09786193     0.08200
C1577       C  0.96487735  0.62328856  0.10588439    -0.04900
H1578       H  0.91985885  0.67209570  0.09062872     0.08900
H1579       H  0.98319656  0.59977590  0.10912608     0.10100
Cu1580     Cu  0.93127701  0.75106755  0.10344598     0.44200
Cu1581     Cu  0.97367533  0.68937345  0.12005738     0.42000
Cu1582     Cu  0.97405661  0.80628091  0.12041910     0.43900
N1583       N  0.93813573  0.81696756  0.10350861    -0.33600
N1584       N  0.95742598  0.83715935  0.10942103    -0.27800
C1585       C  0.96531175  0.87630731  0.10677381    -0.03900
C1586       C  0.94962450  0.88175615  0.09879394     0.08300
C1587       C  0.93198545  0.84322289  0.09711717     0.02100
H1588       H  0.98435791  0.89786382  0.11010949     0.09800
H1589       H  0.91945780  0.83354406  0.09125119     0.08800
N1590       N  0.48448539  0.78107051  0.12873867    -0.35000
N1591       N  0.48278495  0.74002330  0.12896623    -0.27200
C1592       C  0.49013930  0.72700115  0.13675065    -0.02400
C1593       C  0.49690906  0.76124105  0.14170979     0.06200
C1594       C  0.49317730  0.79490402  0.13636420     0.04300
H1595       H  0.48986862  0.69481299  0.13865763     0.09400
H1596       H  0.49493389  0.82737728  0.13794289     0.08200
N1597       N  0.50128370  0.68774098  0.21315336    -0.26200
N1598       N  0.51480904  0.70553490  0.21994591    -0.34000
C1599       C  0.50907151  0.68003731  0.22638371     0.02200
C1600       C  0.49074606  0.64446112  0.22352044     0.08200
C1601       C  0.48605347  0.65042126  0.21511696    -0.04900
H1602       H  0.51725322  0.68721175  0.23268163     0.08900
H1603       H  0.47338696  0.62884933  0.21073144     0.10100
Cu1604     Cu  0.53823263  0.76446023  0.22029579     0.44200
Cu1605     Cu  0.50594499  0.71502608  0.20156896     0.42000
Cu1606     Cu  0.54590716  0.81961321  0.20081624     0.43900
N1607       N  0.55188598  0.82646627  0.21943056    -0.33600
N1608       N  0.55483926  0.84681509  0.21237168    -0.27800
C1609       C  0.56031553  0.88721147  0.21402225    -0.03900
C1610       C  0.56035854  0.89250531  0.22249079     0.08300
C1611       C  0.55504010  0.85323247  0.22572587     0.02100
H1612       H  0.56193393  0.91137614  0.20939301     0.09800
H1613       H  0.55182992  0.84478301  0.23214241     0.08800
N1614       N  0.53058466  0.78548316  0.19031493    -0.35000
N1615       N  0.51589303  0.74754603  0.19068161    -0.27200
C1616       C  0.50835125  0.73415726  0.18299779    -0.02400
C1617       C  0.51860436  0.76503410  0.17741418     0.06200
C1618       C  0.53264994  0.79718069  0.18233823     0.04300
H1619       H  0.49585106  0.70408495  0.18164255     0.09400
H1620       H  0.54333058  0.82709652  0.18031043     0.08200
C1621       C  0.97734509  0.58611286  0.07640154    -0.09700
C1622       C  0.97062474  0.60868041  0.08354057    -0.03600
C1623       C  0.96063233  0.58985489  0.09111056    -0.09700
C1624       C  0.96011758  0.54488315  0.09147196     0.11200
C1625       C  0.96829903  0.52159630  0.08414176    -0.01500
C1626       C  0.97684625  0.54268746  0.07664289     0.11000
C1627       C  0.98410920  0.52003991  0.06942108    -0.11500
C1628       C  0.99397210  0.98205054  0.07093961    -0.11500
C1629       C  0.98374520  0.95935010  0.07799927     0.11000
C1630       C  0.97342460  0.98039325  0.08542527    -0.01500
C1631       C  0.95077944  0.52213187  0.09866593    -0.11600
C1632       C  0.95199264  0.97991408  0.09973894    -0.11600
C1633       C  0.96290563  0.95711293  0.09261872     0.11200
C1634       C  0.96273045  0.91217393  0.09218138    -0.09700
C1635       C  0.97384425  0.89329812  0.08465734    -0.03600
C1636       C  0.98290479  0.91599473  0.07763829    -0.09700
H1637       H  0.99149837  0.53508851  0.06365192     0.08500
H1638       H  0.00319362  0.96700332  0.06526642     0.08500
H1639       H  0.94376163  0.53827538  0.10433193     0.08700
H1640       H  0.94344732  0.96373514  0.10531075     0.08700
H1641       H  0.97226054  0.64214533  0.08304966     0.05100
H1642       H  0.97458040  0.85980104  0.08410088     0.05100
C1643       C  0.99285867  0.58158295  0.91254485    -0.09700
C1644       C  0.98866484  0.60491429  0.90536195    -0.03600
C1645       C  0.98245602  0.58681143  0.89755358    -0.09700
C1646       C  0.98281762  0.54194182  0.89701676     0.11200
C1647       C  0.98840663  0.51786611  0.90437637    -0.01500
C1648       C  0.99325960  0.53812802  0.91210039     0.11000
C1649       C  0.99797782  0.51456645  0.91932756    -0.11500
C1650       C  0.98513702  0.97904911  0.91924827    -0.11500
C1651       C  0.98357158  0.95643984  0.91190191     0.11000
C1652       C  0.97781651  0.97751420  0.90424267    -0.01500
C1653       C  0.97667154  0.52002816  0.88959258    -0.11600
C1654       C  0.96854338  0.97701189  0.88939845    -0.11600
C1655       C  0.97484384  0.95425422  0.89678509     0.11200
C1656       C  0.97732561  0.90930665  0.89719808    -0.09700
C1657       C  0.98497563  0.89049441  0.90493462    -0.03600
C1658       C  0.98701085  0.91306797  0.91216486    -0.09700
H1659       H  0.00227558  0.52886740  0.92528196     0.08500
H1660       H  0.99013903  0.96409981  0.92516792     0.08500
H1661       H  0.97165198  0.53683497  0.88388002     0.08700
H1662       H  0.96564862  0.96082681  0.88361016     0.08700
H1663       H  0.98957793  0.63833699  0.90597640     0.05100
H1664       H  0.98822232  0.85702705  0.90545693     0.05100
C1665       C  0.48814689  0.56221717  0.74887367     0.87600
C1666       C  0.93768377  0.53985989  0.74584035    -0.52600
C1667       C  0.94793596  0.50922854  0.74031474     0.10500
C1668       C  0.52960353  0.98984466  0.74161985     0.21500
C1669       C  0.47085224  0.52637116  0.75389365    -0.53300
C1670       C  0.53718667  0.97953524  0.75083514     0.10600
C1671       C  0.52883067  0.54533786  0.74520696    -0.52900
C1672       C  0.52425945  0.51033524  0.74063980     0.11200
H1673       H  0.90806713  0.55677030  0.74576911     0.15700
H1674       H  0.53503790  0.96270714  0.73756361     0.01500
H1675       H  0.46359199  0.52975579  0.76035933     0.16000
H1676       H  0.55849426  0.56042975  0.74596903     0.15800
C1677       C  0.49280346  0.55625635  0.23971425     0.87600
C1678       C  0.94076356  0.53101116  0.24760676    -0.52600
C1679       C  0.00148486  0.01876095  0.24775819     0.10500
C1680       C  0.53833669  0.98403320  0.24821795     0.21500
C1681       C  0.52470776  0.54726098  0.24661463    -0.53300
C1682       C  0.56923300  0.01687017  0.25112185     0.10600
C1683       C  0.54457056  0.01565406  0.23462163    -0.52900
C1684       C  0.54679661  0.97889280  0.23888514     0.11200
H1685       H  0.91099489  0.54746928  0.24805225     0.15700
H1686       H  0.54040710  0.95444067  0.25174935     0.01500
H1687       H  0.55039764  0.56744111  0.24801262     0.16000
H1688       H  0.54888995  0.01851642  0.22803791     0.15800
N1689       N  0.88016871  0.01357761  0.38082468    -0.26200
N1690       N  0.85759932  0.03591641  0.38603096    -0.34000
C1691       C  0.88166238  0.04524500  0.39253948     0.02200
C1692       C  0.92135098  0.02690749  0.39169459     0.08200
C1693       C  0.91889379  0.00711050  0.38407687    -0.04900
H1694       H  0.86979446  0.06114053  0.39792101     0.08900
H1695       H  0.94231583  0.98665237  0.38142359     0.10100
Cu1696     Cu  0.79179910  0.04352028  0.38527050     0.44200
Cu1697     Cu  0.85308078  0.99166828  0.36988691     0.42000
Cu1698     Cu  0.73594532  0.99023360  0.36976947     0.43900
N1699       N  0.72641316  0.03519518  0.38569553    -0.33600
N1700       N  0.70600242  0.01197887  0.38042476    -0.27800
C1701       C  0.66765776  0.00428157  0.38349821    -0.03900
C1702       C  0.66310865  0.02413425  0.39107635     0.08300
C1703       C  0.70117255  0.04396485  0.39206806     0.02100
H1704       H  0.64626241  0.98267769  0.38080584     0.09800
H1705       H  0.71153142  0.05998045  0.39752204     0.08800
N1706       N  0.77420285  0.98046304  0.35946259    -0.35000
N1707       N  0.81545738  0.98101271  0.35946006    -0.27200
C1708       C  0.82880481  0.97666024  0.35163401    -0.02400
C1709       C  0.79455855  0.97328625  0.34639748     0.06200
C1710       C  0.76059064  0.97576633  0.35166068     0.04300
H1711       H  0.86121491  0.97716646  0.34989022     0.09400
H1712       H  0.72802820  0.97553510  0.34995691     0.08200
N1713       N  0.87886322  0.99495704  0.27574903    -0.26200
N1714       N  0.85880094  0.01511436  0.26979083    -0.34000
C1715       C  0.88430532  0.02011499  0.26335168     0.02200
C1716       C  0.92268910  0.00219779  0.26532762     0.08200
C1717       C  0.91806713  0.98643785  0.27323615    -0.04900
H1718       H  0.87492982  0.03449597  0.25758016     0.08900
H1719       H  0.94137790  0.96972642  0.27685502     0.10100
Cu1720     Cu  0.79623679  0.02945692  0.27035167     0.44200
Cu1721     Cu  0.84927083  0.98040871  0.28679157     0.42000
Cu1722     Cu  0.73368550  0.98679845  0.28661918     0.43900
N1723       N  0.73269519  0.02461561  0.26965119    -0.33600
N1724       N  0.70897485  0.00653255  0.27517892    -0.27800
C1725       C  0.66986039  0.00469679  0.27205657    -0.03900
C1726       C  0.66968104  0.02279874  0.26424823     0.08300
C1727       C  0.70985812  0.03510131  0.26301496     0.02100
H1728       H  0.64369311  0.99155776  0.27522863     0.09800
H1729       H  0.72206852  0.04960510  0.25753760     0.08800
N1730       N  0.77065870  0.97639936  0.29723027    -0.35000
N1731       N  0.81188373  0.97430091  0.29722089    -0.27200
C1732       C  0.82574790  0.97039896  0.30503825    -0.02400
C1733       C  0.79190803  0.97005483  0.31033378     0.06200
C1734       C  0.75747817  0.97379756  0.30509504     0.04300
H1735       H  0.85835688  0.96902246  0.30671198     0.09400
H1736       H  0.72511160  0.97593528  0.30686083     0.08200
N1737       N  0.83467782  0.49344477  0.44871400    -0.26200
N1738       N  0.81673772  0.52616236  0.44511964    -0.34000
C1739       C  0.83313039  0.53165564  0.43762002     0.02200
C1740       C  0.86282811  0.50097387  0.43636620     0.08200
C1741       C  0.86332768  0.47714761  0.44351426    -0.04900
H1742       H  0.82109080  0.55357170  0.43307911     0.08900
H1743       H  0.88080543  0.44852442  0.44459474     0.10100
Cu1744     Cu  0.75991572  0.55018815  0.44861295     0.44200
Cu1745     Cu  0.81187489  0.47024936  0.45985523     0.42000
Cu1746     Cu  0.69948443  0.47779757  0.45987310     0.43900
N1747       N  0.70133388  0.53348565  0.44505208    -0.33600
N1748       N  0.68010043  0.50392891  0.44867862    -0.27800
C1749       C  0.65029478  0.49133352  0.44342859    -0.03900
C1750       C  0.65355320  0.51410986  0.43621433     0.08300
C1751       C  0.68595537  0.54045743  0.43746200     0.02100
H1752       H  0.63011337  0.46549538  0.44453102     0.09800
H1753       H  0.70025778  0.55997371  0.43288723     0.08800
N1754       N  0.73461692  0.46262049  0.47035553    -0.35000
N1755       N  0.77583056  0.46004572  0.47037538    -0.27200
C1756       C  0.78928984  0.45423225  0.47819070    -0.02400
C1757       C  0.75498068  0.45298261  0.48329746     0.06200
C1758       C  0.72087102  0.45845087  0.47814044     0.04300
H1759       H  0.82167562  0.45303508  0.48005909     0.09400
H1760       H  0.68857158  0.46130688  0.47995382     0.08200
N1761       N  0.67672513  0.51267626  0.54258472    -0.26200
N1762       N  0.69622940  0.54382165  0.54605180    -0.34000
C1763       C  0.68050635  0.55080913  0.55357211     0.02200
C1764       C  0.64956618  0.52286979  0.55492979     0.08200
C1765       C  0.64766053  0.49907029  0.54785969    -0.04900
H1766       H  0.69346124  0.57188107  0.55802162     0.08900
H1767       H  0.62874312  0.47220401  0.54686150     0.10100
Cu1768     Cu  0.75335845  0.56358969  0.54231813     0.44200
Cu1769     Cu  0.69741111  0.48658419  0.53154702     0.42000
Cu1770     Cu  0.80888949  0.48197322  0.53199013     0.43900
N1771       N  0.80942537  0.53976754  0.54641922    -0.33600
N1772       N  0.82827456  0.50678556  0.54320019    -0.27800
C1773       C  0.85528383  0.49068662  0.54882650    -0.03900
C1774       C  0.85265327  0.51482188  0.55584976     0.08300
C1775       C  0.82363232  0.54558173  0.55409863     0.02100
H1776       H  0.87302547  0.46201210  0.54808627     0.09800
H1777       H  0.81046644  0.56780991  0.55838934     0.08800
N1778       N  0.77424946  0.46848920  0.52144001    -0.35000
N1779       N  0.73303721  0.47022875  0.52128222    -0.27200
C1780       C  0.71978788  0.46360211  0.51351483    -0.02400
C1781       C  0.75426641  0.45732540  0.50856788     0.06200
C1782       C  0.78826336  0.46070332  0.51377379     0.04300
H1783       H  0.68753836  0.46505462  0.51155474     0.09400
H1784       H  0.82076234  0.45941955  0.51205711     0.08200
N1785       N  0.84322167  0.00001870  0.71195935    -0.26200
N1786       N  0.81949325  0.02196574  0.71702029    -0.34000
C1787       C  0.84267897  0.03557495  0.72329656     0.02200
C1788       C  0.88300844  0.02116385  0.72225549     0.08200
C1789       C  0.88250419  0.99873448  0.71496951    -0.04900
H1790       H  0.83059818  0.05314505  0.72845868     0.08900
H1791       H  0.90845076  0.98248063  0.71211841     0.10100
Cu1792     Cu  0.75568042  0.02658065  0.71605830     0.44200
Cu1793     Cu  0.81836805  0.97323410  0.70140313     0.42000
Cu1794     Cu  0.70301534  0.96903652  0.70055867     0.43900
N1795       N  0.69330127  0.01382469  0.71662708    -0.33600
N1796       N  0.67349376  0.99103860  0.71119145    -0.27800
C1797       C  0.63466134  0.98455738  0.71398839    -0.03900
C1798       C  0.63007556  0.00445584  0.72151026     0.08300
C1799       C  0.66802241  0.02256365  0.72296193     0.02100
H1800       H  0.61181507  0.96596278  0.71088727     0.09800
H1801       H  0.67758242  0.03906224  0.72841274     0.08800
N1802       N  0.74269440  0.95485183  0.69071792    -0.35000
N1803       N  0.78382417  0.95614027  0.69108304    -0.27200
C1804       C  0.79940031  0.94814799  0.68356597    -0.02400
C1805       C  0.76674278  0.94162042  0.67811429     0.06200
C1806       C  0.73124109  0.94599485  0.68293427     0.04300
H1807       H  0.83223015  0.94863440  0.68216546     0.09400
H1808       H  0.69920660  0.94443066  0.68090849     0.08200
N1809       N  0.69609902  0.89423811  0.60734765    -0.26200
N1810       N  0.71835897  0.87566199  0.60156254    -0.34000
C1811       C  0.69368391  0.87070467  0.59492151     0.02200
C1812       C  0.65395569  0.88791943  0.59640529     0.08200
C1813       C  0.65708395  0.90240143  0.60444664    -0.04900
H1814       H  0.70508072  0.85916667  0.58908683     0.08900
H1815       H  0.63402217  0.92108272  0.60765905     0.10100
Cu1816     Cu  0.78430030  0.86769394  0.60224241     0.44200
Cu1817     Cu  0.72355195  0.91091613  0.61849044     0.42000
Cu1818     Cu  0.84014494  0.90914089  0.61952026     0.43900
N1819       N  0.85009139  0.87432917  0.60255318    -0.33600
N1820       N  0.87044709  0.89272976  0.60856458    -0.27800
C1821       C  0.90943112  0.90137327  0.60596498    -0.03900
C1822       C  0.91450415  0.88718944  0.59792557     0.08300
C1823       C  0.87604312  0.86967246  0.59613042     0.02100
H1824       H  0.93087057  0.92042801  0.60933970     0.09800
H1825       H  0.86595895  0.85916446  0.59013722     0.08800
N1826       N  0.80023063  0.91765819  0.62959160    -0.35000
N1827       N  0.75902567  0.91841969  0.62917610    -0.27200
C1828       C  0.74360539  0.92238086  0.63683047    -0.02400
C1829       C  0.77640255  0.92410537  0.64241614     0.06200
C1830       C  0.81183468  0.92112382  0.63754531     0.04300
H1831       H  0.71070125  0.92324827  0.63818702     0.09400
H1832       H  0.84389425  0.92058134  0.63960635     0.08200
C1833       C  0.58985157  0.51681883  0.57702466    -0.09700
C1834       C  0.61130410  0.52762561  0.58410402    -0.03600
C1835       C  0.62355850  0.90222307  0.58979096    -0.09700
C1836       C  0.57874218  0.90506148  0.59045318     0.11200
C1837       C  0.52443731  0.51984540  0.58469872    -0.01500
C1838       C  0.54671595  0.51156812  0.57731225     0.11000
C1839       C  0.52539688  0.49870621  0.57025275    -0.11500
C1840       C  0.97373599  0.49369082  0.57134227    -0.11500
C1841       C  0.95227731  0.50639322  0.57842598     0.11000
C1842       C  0.97475822  0.51762613  0.58561314    -0.01500
C1843       C  0.55664864  0.89104346  0.59740050    -0.11600
C1844       C  0.01232138  0.88712514  0.59824071    -0.11600
C1845       C  0.98821977  0.90161894  0.59146218     0.11200
C1846       C  0.94322773  0.90339571  0.59139643    -0.09700
C1847       C  0.88726607  0.51998124  0.58538619    -0.03600
C1848       C  0.90872523  0.50882114  0.57831594    -0.09700
H1849       H  0.54151506  0.49108647  0.56459997     0.08500
H1850       H  0.95763149  0.48371517  0.56584887     0.08500
H1851       H  0.57331906  0.87737566  0.60258611     0.08700
H1852       H  0.99710228  0.87686158  0.60379393     0.08700
H1853       H  0.64481076  0.52975514  0.58363724     0.05100
H1854       H  0.85355637  0.52045317  0.58504707     0.05100
C1855       C  0.59463587  0.50475616  0.41400148    -0.09700
C1856       C  0.61610264  0.51175112  0.40676541    -0.03600
C1857       C  0.59578651  0.51831405  0.39912736    -0.09700
C1858       C  0.55076628  0.51652185  0.39889814     0.11200
C1859       C  0.52885622  0.50760441  0.40632498    -0.01500
C1860       C  0.55129735  0.50141071  0.41382304     0.11000
C1861       C  0.53001406  0.49233303  0.42110061    -0.11500
C1862       C  0.98346010  0.46530667  0.42001740    -0.11500
C1863       C  0.96109637  0.48094535  0.41320049     0.11000
C1864       C  0.98216209  0.48944514  0.40571582    -0.01500
C1865       C  0.52658785  0.52441375  0.39173935    -0.11600
C1866       C  0.98194679  0.51347186  0.39151830    -0.11600
C1867       C  0.95905999  0.50335511  0.39863634     0.11200
C1868       C  0.91425589  0.50799915  0.39917632    -0.09700
C1869       C  0.89546643  0.50111696  0.40689614    -0.03600
C1870       C  0.91819477  0.48898744  0.41384363    -0.09700
H1871       H  0.54617683  0.48660037  0.42687761     0.08500
H1872       H  0.96812314  0.45686789  0.42568594     0.08500
H1873       H  0.54169032  0.53209133  0.38600892     0.08700
H1874       H  0.96590386  0.52480057  0.38604991     0.08700
H1875       H  0.64974134  0.51234051  0.40720603     0.05100
H1876       H  0.86212746  0.50504196  0.40761537     0.05100
C1877       C  0.73308084  0.93038380  0.66422805    -0.12200
C1878       C  0.76926477  0.93529599  0.66901353     0.09900
C1879       C  0.77996461  0.48359830  0.66666265    -0.12200
C1880       C  0.78146926  0.48869969  0.65807619    -0.12200
C1881       C  0.77398124  0.92733550  0.65158219     0.09900
C1882       C  0.73539767  0.92650288  0.65564682    -0.12200
H1883       H  0.70273633  0.92985067  0.66706892     0.13900
H1884       H  0.80900952  0.48188135  0.67005700     0.13900
H1885       H  0.81163706  0.49073087  0.65520129     0.13900
H1886       H  0.70672358  0.92300170  0.65223073     0.13900
C1887       C  0.87054740  0.50685333  0.56384958    -0.12200
C1888       C  0.88578333  0.50514101  0.57065448    -0.13700
C1889       C  0.62901222  0.51646957  0.56266947    -0.12200
C1890       C  0.61239104  0.51472604  0.56931069    -0.13700
C1891       C  0.75473225  0.45363195  0.49968144    -0.12200
C1892       C  0.75494860  0.45233171  0.49221871    -0.13700
C1893       C  0.88237032  0.49215480  0.42856909    -0.12200
C1894       C  0.89750304  0.48875494  0.42179143    -0.13700
C1895       C  0.63362752  0.50709191  0.42841775    -0.12200
C1896       C  0.61748322  0.50430113  0.42172430    -0.13700
C1897       C  0.83121991  0.97114477  0.33262266    -0.12200
C1898       C  0.79404214  0.97062076  0.33716856     0.09900
C1899       C  0.75623476  0.96837600  0.33276647    -0.12200
C1900       C  0.75556933  0.96761324  0.32412031    -0.12200
C1901       C  0.79268236  0.96902451  0.31957353     0.09900
C1902       C  0.83055603  0.97033972  0.32397684    -0.12200
H1903       H  0.86105252  0.97265556  0.33571048     0.13900
H1904       H  0.72684863  0.96754204  0.33596545     0.13900
H1905       H  0.72574704  0.96617859  0.32102490     0.13900
H1906       H  0.85993449  0.97134271  0.32077779     0.13900
C1907       C  0.96376987  0.02040318  0.25301499    -0.15300
C1908       C  0.96034258  0.99893024  0.26010657    -0.30500
H1909       H  0.93881522  0.04171066  0.25113335     0.13700
H1910       H  0.98611367  0.97956561  0.26232612     0.14300
C1911       C  0.63604677  0.02965071  0.25812612    -0.15300
C1912       C  0.60001456  0.00929207  0.25790960    -0.30500
H1913       H  0.64310156  0.05106085  0.25317461     0.13700
H1914       H  0.59411361  0.98519594  0.26242285     0.14300
C1915       C  0.95245170  0.00491978  0.72851925    -0.15300
C1916       C  0.91726903  0.02827844  0.72813017    -0.30500
H1917       H  0.95660602  0.97876328  0.72438889     0.13700
H1918       H  0.86533537  0.50502226  0.74049699     0.14300
C1919       C  0.59090604  0.02892226  0.73364917    -0.15300
C1920       C  0.59400501  0.00319939  0.72715882    -0.30500
H1921       H  0.61388144  0.05277757  0.73444923     0.13700
H1922       H  0.52834086  0.47934050  0.72520487     0.14300
C1923       C  0.55281779  0.93750330  0.23490214    -0.15300
C1924       C  0.56068001  0.93284690  0.22678416    -0.30500
H1925       H  0.01246905  0.90621105  0.23957034     0.13700
H1926       H  0.56562876  0.95957665  0.22288803     0.14300
C1927       C  0.47993057  0.60714888  0.22826406    -0.15300
C1928       C  0.49972573  0.59691312  0.23533114    -0.30500
H1929       H  0.93305725  0.56612016  0.22930607     0.13700
H1930       H  0.52357090  0.61703960  0.23771825     0.14300
C1931       C  0.99284721  0.78094950  0.15752719    -0.12200
C1932       C  0.50373805  0.76196313  0.15081426     0.09900
C1933       C  0.49503845  0.72710929  0.15569397    -0.12200
C1934       C  0.50014630  0.72808535  0.16426219    -0.12200
C1935       C  0.51424634  0.76391979  0.16823705     0.09900
C1936       C  0.99382679  0.78059391  0.16616280    -0.12200
H1937       H  0.99842898  0.80989903  0.15437142     0.13900
H1938       H  0.48355322  0.69909554  0.15293156     0.13900
H1939       H  0.49271623  0.70057093  0.16773696     0.13900
H1940       H  0.99965619  0.80939253  0.16931248     0.13900
C1941       C  0.98334739  0.87419016  0.92654018    -0.12200
C1942       C  0.98777683  0.89072711  0.91993365    -0.13700
C1943       C  0.99309759  0.60309622  0.92043091    -0.12200
C1944       C  0.98915427  0.61979086  0.92706397    -0.13700
C1945       C  0.98303110  0.87879931  0.06310293    -0.12200
C1946       C  0.98589415  0.89440445  0.06982667    -0.13700
C1947       C  0.97972849  0.60854573  0.06866341    -0.12200
C1948       C  0.97658943  0.62603344  0.06209455    -0.13700
C1949       C  0.00834656  0.75413011  0.99106801    -0.12200
C1950       C  0.00846181  0.75541796  0.99853797    -0.13700
C1951       C  0.56028493  0.93091402  0.76186357    -0.15300
C1952       C  0.54577395  0.93708747  0.75412371    -0.30500
H1953       H  0.57155204  0.95674020  0.76543151     0.13700
H1954       H  0.98965372  0.91092883  0.74850032     0.14300
C1955       C  0.49302129  0.60126891  0.75378775    -0.15300
C1956       C  0.51256131  0.60109000  0.76112810    -0.30500
H1957       H  0.96441373  0.57212577  0.76488996     0.13700
H1958       H  0.52505071  0.57222339  0.76372236     0.14300
C1959       C  0.02700098  0.78611949  0.83211094    -0.12200
C1960       C  0.51178186  0.76215569  0.83845663     0.09900
C1961       C  0.50176180  0.72738162  0.83371493    -0.12200
C1962       C  0.50635010  0.72790940  0.82514504    -0.12200
C1963       C  0.52129111  0.76317315  0.82106254     0.09900
C1964       C  0.02613738  0.78755730  0.82347965    -0.12200
H1965       H  0.03417414  0.81416604  0.83540745     0.13900
H1966       H  0.48969155  0.69983701  0.83659327     0.13900
H1967       H  0.49775290  0.70061909  0.82174787     0.13900
H1968       H  0.03239934  0.81676252  0.82048325     0.13900
loop_ 
_geom_bond_atom_site_label_1 
_geom_bond_atom_site_label_2 
_geom_bond_distance 
_geom_bond_site_symmetry_2 
_ccdc_geom_bond_type 
N1            N2   1.321       .  A
N1            C5   1.361       .  A
N1         Cu993   2.096       .  S
N2            C3   1.345       .  A
N2           Cu8   2.133       .  S
C3            C4   1.403       .  A
C3            H6   1.082       .  S
C4            C5   1.397       .  A
C4          C169   1.518       .  S
C5            H7   1.082       .  S
Cu8          N11   2.133       .  S
Cu9          N19   2.101       .  S
Cu9         N985   2.098   1_455  S
Cu10         N18   2.109       .  S
Cu10        N996   2.107   1_455  S
N11          N12   1.321       .  A
N11          C15   1.343       .  A
N12          C13   1.361       .  A
N12        Cu994   2.096       .  S
C13          C14   1.397       .  A
C13          H16   1.081       .  S
C14          C15   1.404       .  A
C14         C180   1.519       .  S
C15          H17   1.082       .  S
N18          N19   1.326       .  A
N18          C22   1.349       .  A
N19          C20   1.349       .  A
C20          C21   1.390       .  A
C20          H23   1.081       .  S
C21          C22   1.392       .  A
C21         C484   1.499       .  S
C22          H24   1.081       .  S
N25          N26   1.321       .  A
N25          C29   1.343       .  A
N25         Cu33   2.086       .  S
N26          C27   1.345       .  A
N26         Cu32   2.050       .  S
C27          C28   1.381       .  A
C27          H30   1.082       .  S
C28          C29   1.384       .  A
C28         C475   1.471       .  S
C29          H31   1.082       .  S
Cu32         N35   2.051       .  S
Cu33         N43   2.087       .  S
Cu34         N36   2.101       .  S
Cu34         N42   2.101       .  S
N35          N36   1.323       .  A
N35          C39   1.342       .  A
N36          C37   1.349       .  A
C37          C38   1.387       .  A
C37          H40   1.082       .  S
C38          C39   1.380       .  A
C38         C480   1.477       .  S
C39          H41   1.082       .  S
N42          N43   1.323       .  A
N42          C46   1.351       .  A
N43          C44   1.346       .  A
C44          C45   1.389       .  A
C44          H47   1.081       .  S
C45          C46   1.393       .  A
C45         C487   1.496       .  S
C46          H48   1.081       .  S
N49          N50   1.321       .  A
N49          C53   1.349       .  A
N49         Cu57   2.085       .  S
N50          C51   1.341       .  A
N50         Cu56   2.050       .  S
C51          C52   1.374       .  A
C51          H54   1.082       .  S
C52          C53   1.386       .  A
C52         C472   1.438       .  S
C53          H55   1.082       .  S
Cu56         N59   2.050       .  S
Cu57         N67   2.087       .  S
Cu58         N60   2.087       .  S
Cu58         N66   2.088       .  S
N59          N60   1.322       .  A
N59          C63   1.340       .  A
N60          C61   1.350       .  A
C61          C62   1.386       .  A
C61          H64   1.082       .  S
C62          C63   1.373       .  A
C62         C469   1.438       .  S
C63          H65   1.082       .  S
N66          N67   1.325       .  A
N66          C70   1.348       .  A
N67          C68   1.347       .  A
C68          C69   1.382       .  A
C68          H71   1.082       .  S
C69          C70   1.382       .  A
C69         C474   1.444   1_554  S
C70          H72   1.082       .  S
N73          N74   1.322       .  A
N73          C77   1.348       .  A
N73         Cu81   2.083       .  S
N74          C75   1.341       .  A
N74         Cu80   2.050       .  S
C75          C76   1.374       .  A
C75          H78   1.082       .  S
C76          C77   1.384       .  A
C76         C468   1.436       .  S
C77          H79   1.082       .  S
Cu80         N83   2.051       .  S
Cu81         N91   2.084       .  S
Cu82         N84   2.082       .  S
Cu82         N90   2.083       .  S
N83          N84   1.322       .  A
N83          C87   1.342       .  A
N84          C85   1.348       .  A
C85          C86   1.384       .  A
C85          H88   1.082       .  S
C86          C87   1.374       .  A
C86         C465   1.436       .  S
C87          H89   1.082       .  S
N90          N91   1.324       .  A
N90          C94   1.347       .  A
N91          C92   1.347       .  A
C92          C93   1.382       .  A
C92          H95   1.082       .  S
C93          C94   1.382       .  A
C93         C473   1.444       .  S
C94          H96   1.082       .  S
N97          N98   1.322       .  A
N97         C101   1.358       .  A
N97        Cu105   2.088       .  S
N98          C99   1.345       .  A
N98        Cu104   2.136       .  S
C99         C100   1.404       .  A
C99         H102   1.082       .  S
C100        C101   1.394       .  A
C100        C147   1.514       .  S
C101        H103   1.081       .  S
Cu104       N107   2.136       .  S
Cu105      N1099   2.091       .  S
Cu106       N108   2.088       .  S
Cu106      N1098   2.090       .  S
N107        N108   1.321       .  A
N107        C111   1.347       .  A
N108        C109   1.357       .  A
C109        C110   1.393       .  A
C109        H112   1.082       .  S
C110        C111   1.403       .  A
C110        C158   1.511       .  S
C111        H113   1.082       .  S
N114        N115   1.326       .  A
N114        C118   1.349   1_655  A
N114      Cu1090   2.110       .  S
N115        C116   1.350   1_655  A
N115      Cu1089   2.106       .  S
C116        C117   1.392       .  A
C116        H119   1.081       .  S
C117        C118   1.393       .  A
C117        C456   1.503       .  S
C118        H120   1.081       .  S
N121        N122   1.322       .  A
N121        C125   1.350       .  A
N121       Cu129   2.106       .  S
N122        C123   1.342       .  A
N122       Cu128   2.049       .  S
C123        C124   1.375       .  A
C123        H126   1.082       .  S
C124        C125   1.394       .  A
C124        C451   1.481       .  S
C125        H127   1.081       .  S
Cu128       N131   2.049       .  S
Cu129       N139   2.107       .  S
Cu130       N132   2.097       .  S
Cu130       N138   2.098       .  S
N131        N132   1.320       .  A
N131        C135   1.343       .  A
N132        C133   1.348       .  A
C133        C134   1.389       .  A
C133        H136   1.082       .  S
C134        C135   1.382       .  A
C134        C448   1.480       .  S
C135        H137   1.081       .  S
N138        N139   1.324       .  A
N138        C142   1.347       .  A
N139        C140   1.352       .  A
C140        C141   1.394       .  A
C140        H143   1.081       .  S
C141        C142   1.391       .  A
C141        C459   1.501       .  S
C142        H144   1.081       .  S
C145        C146   1.385       .  A
C145        C150   1.400       .  A
C145        C471   1.451       .  S
C146        C147   1.411       .  A
C146        H165   1.083       .  S
C147        C148   1.449       .  A
C148        C149   1.430       .  A
C148        C155   1.415       .  A
C149        C150   1.424       .  A
C149        C646   1.432   1_545  A
C150        C151   1.401       .  A
C151        C644   1.374   1_545  A
C151        H161   1.083       .  S
C152        C153   1.401       .  A
C152        C643   1.375       .  A
C152        H162   1.083       .  S
C153        C154   1.423       .  A
C153        C160   1.401       .  A
C154        C157   1.429       .  A
C154        C641   1.432       .  A
C155        C648   1.421   1_545  A
C155        H163   1.081       .  S
C156        C157   1.414       .  A
C156        C647   1.420       .  A
C156        H164   1.082       .  S
C157        C158   1.447       .  A
C158        C159   1.409       .  A
C159        C160   1.387       .  A
C159        H166   1.084       .  S
C160        C470   1.451       .  S
C167        C168   1.386       .  A
C167        C172   1.398       .  A
C167        C467   1.449       .  S
C168        C169   1.411       .  A
C168        H187   1.083       .  S
C169        C170   1.450       .  A
C170        C171   1.432       .  A
C170        C177   1.414       .  A
C171        C172   1.422       .  A
C171        C668   1.432   1_545  A
C172        C173   1.402       .  A
C173        C666   1.374   1_545  A
C173        H183   1.083       .  S
C174        C175   1.402       .  A
C174        C665   1.374       .  A
C174        H184   1.082       .  S
C175        C176   1.422       .  A
C175        C182   1.398       .  A
C176        C179   1.432       .  A
C176        C663   1.433       .  A
C177        C670   1.421   1_545  A
C177        H185   1.081       .  S
C178        C179   1.414       .  A
C178        C669   1.421       .  A
C178        H186   1.081       .  S
C179        C180   1.451       .  A
C180        C181   1.411       .  A
C181        C182   1.384       .  A
C181        H188   1.083       .  S
C182        C466   1.448       .  S
C189        C195   1.536       .  S
C189        C193   1.527       .  S
C189        C479   1.514       .  S
C189       C1174   1.534   1_455  S
C190       C1173   1.532       .  S
C190        H197   1.087       .  S
C190        C191   1.365       .  D
C191       C1668   1.543   1_545  S
C191        C931   1.481   1_545  S
C192        C194   1.547       .  S
C192       C1667   1.542       .  S
C192        C688   1.544   1_655  S
C192        H198   1.110   1_655  S
C193        H199   1.085       .  S
C193        C686   1.362   1_545  D
C194        C685   1.363       .  D
C194        C476   1.489   1_655  S
C195        H200   1.086       .  S
C195        C196   1.373   1_545  D
C196        C684   1.541       .  S
C196        C935   1.488       .  S
C201        C205   1.537       .  S
C201        C452   1.515       .  S
C201       C1186   1.535       .  S
C201        C699   1.523       .  S
C202       C1185   1.530       .  S
C202        H209   1.087       .  S
C202        C695   1.363       .  D
C203       C1188   1.543       .  S
C203        C694   1.367       .  D
C203        C431   1.479       .  S
C204        C208   1.549   1_655  S
C204        C206   1.539   1_655  S
C204       C1187   1.539       .  S
C204        H210   1.111   1_655  S
C205        H211   1.085       .  S
C205        C698   1.374       .  D
C206        C697   1.371       .  D
C206        C436   1.493       .  S
C207        C693   1.530       .  S
C207        H212   1.084       .  S
C207        C208   1.365   1_655  D
C208        C447   1.493       .  S
N213        N214   1.323       .  A
N213        C217   1.359       .  A
N213       Cu221   2.100       .  S
N214        C215   1.345       .  A
N214       Cu220   2.132       .  S
C215        C216   1.402       .  A
C215        H218   1.082       .  S
C216        C217   1.395       .  A
C216        C884   1.515       .  S
C217        H219   1.081       .  S
Cu220       N223   2.132       .  S
Cu221       N231   2.103       .  S
Cu222       N224   2.092       .  S
Cu222       N230   2.094       .  S
N223        N224   1.321       .  A
N223        C227   1.347       .  A
N224        C225   1.357       .  A
C225        C226   1.393       .  A
C225        H228   1.082       .  S
C226        C227   1.402       .  A
C226        C873   1.509       .  S
C227        H229   1.082       .  S
N230        N231   1.325       .  A
N230        C234   1.346       .  A
N231        C232   1.350       .  A
C232        C233   1.392       .  A
C232        H235   1.081       .  S
C233        C234   1.389       .  A
C233        C422   1.497       .  S
C234        H236   1.081       .  S
N237        N238   1.319       .  A
N237        C241   1.350       .  A
N237       Cu245   2.089       .  S
N238        C239   1.339       .  A
N238       Cu244   2.047       .  S
C239        C240   1.382       .  A
C239        H242   1.081       .  S
C240        C241   1.390       .  A
C240        C432   1.481       .  S
C241        H243   1.082       .  S
Cu244       N247   2.045       .  S
Cu245       N255   2.092       .  S
Cu246       N248   2.106       .  S
Cu246       N254   2.109       .  S
N247        N248   1.320       .  A
N247        C251   1.339       .  A
N248        C249   1.354       .  A
C249        C250   1.394       .  A
C249        H252   1.082       .  S
C250        C251   1.375       .  A
C250        C435   1.477       .  S
C251        H253   1.082       .  S
N254        N255   1.325       .  A
N254        C258   1.348       .  A
N255        C256   1.348       .  A
C256        C257   1.390       .  A
C256        H259   1.081       .  S
C257        C258   1.393       .  A
C257        C425   1.498       .  S
C258        H260   1.081       .  S
N261        N262   1.322   1_565  A
N261        C265   1.351       .  A
N261       Cu269   2.095       .  S
N262        C263   1.341       .  A
N262       Cu268   2.048       .  S
C263        C264   1.373   1_545  A
C263        H266   1.082       .  S
C264        C265   1.387       .  A
C264        C417   1.440       .  S
C265        H267   1.082       .  S
Cu268       N271   2.048       .  S
Cu269       N279   2.097       .  S
Cu270       N272   2.082   1_565  S
Cu270       N278   2.084       .  S
N271        N272   1.322       .  A
N271        C275   1.341       .  A
N272        C273   1.349   1_545  A
C273        C274   1.384   1_565  A
C273        H276   1.082       .  S
C274        C275   1.373       .  A
C274        C419   1.435   1_545  S
C275        H277   1.082       .  S
N278        N279   1.324       .  A
N278        C282   1.348       .  A
N279        C280   1.349       .  A
C280        C281   1.384       .  A
C280        H283   1.082       .  S
C281        C282   1.382       .  A
C281        C416   1.448       .  S
C282        H284   1.082       .  S
N285        N286   1.323       .  A
N285        C289   1.350       .  A
N285       Cu293   2.090       .  S
N286        C287   1.340       .  A
N286       Cu292   2.049   1_565  S
C287        C288   1.372       .  A
C287        H290   1.082   1_565  S
C288        C289   1.386       .  A
C288        C413   1.437       .  S
C289        H291   1.082       .  S
Cu292       N295   2.052       .  S
Cu293       N303   2.091       .  S
Cu294       N296   2.090       .  S
Cu294       N302   2.091       .  S
N295        N296   1.322   1_545  A
N295        C299   1.343       .  A
N296        C297   1.349       .  A
C297        C298   1.386       .  A
C297        H300   1.082       .  S
C298        C299   1.376   1_565  A
C298        C411   1.440       .  S
C299        H301   1.082       .  S
N302        N303   1.324       .  A
N302        C306   1.348       .  A
N303        C304   1.349       .  A
C304        C305   1.384       .  A
C304        H307   1.082       .  S
C305        C306   1.383       .  A
C305        C415   1.448       .  S
C306        H308   1.082       .  S
N309        N310   1.321       .  A
N309        C313   1.348       .  A
N309       Cu317   2.079       .  S
N310        C311   1.340       .  A
N310       Cu316   2.053       .  S
C311        C312   1.377       .  A
C311        H314   1.082       .  S
C312        C313   1.387       .  A
C312        C440   1.470       .  S
C313        H315   1.082       .  S
Cu316       N319   2.053       .  S
Cu317       N327   2.081       .  S
Cu318       N320   2.093       .  S
Cu318       N326   2.095       .  S
N319        N320   1.320       .  A
N319        C323   1.340       .  A
N320        C321   1.350       .  A
C321        C322   1.390       .  A
C321        H324   1.082       .  S
C322        C323   1.383       .  A
C322        C444   1.483       .  S
C323        H325   1.081       .  S
N326        N327   1.324       .  A
N326        C330   1.346       .  A
N327        C328   1.346       .  A
C328        C329   1.388       .  A
C328        H331   1.081       .  S
C329        C330   1.391       .  A
C329        C402   1.494       .  S
C330        H332   1.081       .  S
N333        N334   1.321       .  A
N333        C337   1.356       .  A
N333       Cu341   2.081       .  S
N334        C335   1.346       .  A
N334       Cu340   2.133       .  S
C335        C336   1.403       .  A
C335        H338   1.082       .  S
C336        C337   1.392       .  A
C336        C359   1.509       .  S
C337        H339   1.082       .  S
Cu340       N343   2.133       .  S
Cu341       N351   2.083       .  S
Cu342       N344   2.099       .  S
Cu342       N350   2.101       .  S
N343        N344   1.323       .  A
N343        C347   1.346       .  A
N344        C345   1.359       .  A
C345        C346   1.394       .  A
C345        H348   1.082       .  S
C346        C347   1.401       .  A
C346        C370   1.512       .  S
C347        H349   1.082       .  S
N350        N351   1.324       .  A
N350        C354   1.349       .  A
N351        C352   1.344       .  A
C352        C353   1.388       .  A
C352        H355   1.080       .  S
C353        C354   1.392       .  A
C353        C405   1.494       .  S
C354        H356   1.081       .  S
C357        C358   1.386       .  A
C357        C362   1.399       .  A
C357        C414   1.450       .  S
C358        C851   1.412       .  A
C358        H377   1.083       .  S
C359        C360   1.446       .  A
C359        C850   1.410       .  A
C360        C367   1.414       .  A
C360        C853   1.428       .  A
C361        C362   1.422       .  A
C361        C852   1.430       .  A
C361       C1350   1.431       .  A
C362        C363   1.401       .  A
C363       C1348   1.373       .  A
C363        H373   1.082       .  S
C364        C365   1.403       .  A
C364       C1347   1.378       .  A
C364        H374   1.082       .  S
C365        C366   1.423       .  A
C365        C372   1.403       .  A
C366       C1345   1.433       .  A
C366        C861   1.430       .  A
C367       C1352   1.420   1_455  A
C367        H375   1.082       .  S
C368        C369   1.413       .  A
C368       C1351   1.419       .  A
C368        H376   1.082       .  S
C369        C370   1.446       .  A
C369        C858   1.430       .  A
C370        C863   1.410       .  A
C371        C372   1.389       .  A
C371        C862   1.410       .  A
C371        H378   1.085       .  S
C372        C412   1.452       .  S
C379        C380   1.385       .  A
C379        C384   1.399       .  A
C379        C420   1.447       .  S
C380        C381   1.409   1_565  A
C380        H399   1.084       .  S
C381        C382   1.448       .  A
C381        C718   1.514       .  S
C382        C383   1.431       .  A
C382        C389   1.413       .  A
C383        C384   1.422   1_545  A
C383       C1372   1.432       .  A
C384        C385   1.401       .  A
C385       C1370   1.375       .  A
C385        H395   1.083       .  S
C386        C387   1.401       .  A
C386       C1369   1.375       .  A
C386        H396   1.083       .  S
C387        C388   1.424       .  A
C387        C394   1.401       .  A
C388        C391   1.429   1_565  A
C388       C1367   1.432       .  A
C389       C1374   1.420       .  A
C389        H397   1.082       .  S
C390        C391   1.414       .  A
C390       C1373   1.420       .  A
C390        H398   1.082       .  S
C391        C392   1.446       .  A
C392        C393   1.410   1_545  A
C392        C708   1.512       .  S
C393        C394   1.388       .  A
C393        H400   1.084       .  S
C394        C418   1.452       .  S
C401        C402   1.405       .  A
C401        C406   1.398       .  A
C401        H407   1.081       .  S
C402        C895   1.409       .  A
C403        C404   1.401       .  A
C403        C894   1.408       .  A
C403        H408   1.081       .  S
C404        C897   1.407       .  A
C404        H409   1.081       .  S
C405        C406   1.407       .  A
C405        C896   1.407       .  A
C406        H410   1.080       .  S
C411        C412   1.208       .  T
C413        C414   1.207       .  T
C415        C416   1.212       .  T
C417        C418   1.208       .  T
C419        C420   1.205       .  T
C421        C422   1.407       .  A
C421        C426   1.405       .  A
C421        H427   1.082       .  S
C422        C423   1.408       .  A
C423        C424   1.401       .  A
C423        H428   1.081       .  S
C424        C425   1.407       .  A
C424        H429   1.081       .  S
C425        C426   1.410       .  A
C426        H430   1.081       .  S
C431        H433   1.085       .  S
C431        C432   1.347       .  D
C432        H434   1.086       .  S
C435        H437   1.085       .  S
C435        C436   1.344       .  D
C436        H438   1.086       .  S
C439        H441   1.086       .  S
C439        C440   1.342       .  D
C439        C683   1.481       .  S
C440        H934   1.086       .  S
H442        C932   1.086       .  S
C443        H445   1.085       .  S
C443        C444   1.347       .  D
C443        C688   1.482       .  S
C444        H938   1.085       .  S
H446        C936   1.087       .  S
C447       H1433   1.084       .  S
C447        C448   1.353       .  D
C448        H450   1.083       .  S
H449       C1431   1.085       .  S
C451       H1437   1.087       .  S
C451        C452   1.338       .  D
C452        H454   1.086       .  S
H453       C1435   1.086       .  S
C455        C460   1.397       .  A
C455       C1440   1.406       .  A
C455        H461   1.080       .  S
C456        C457   1.410       .  A
C456       C1439   1.408       .  A
C457        C458   1.407       .  A
C457        H462   1.081       .  S
C458        C459   1.408       .  A
C458        H463   1.082       .  S
C459       C1444   1.408       .  A
C460       C1443   1.405       .  A
C460        H464   1.081       .  S
C465        C466   1.206       .  T
C467        C468   1.206       .  T
C469        C470   1.207       .  T
C471        C472   1.207       .  T
C473        C474   1.210       .  T
C475        H477   1.084       .  S
C475        C476   1.350       .  D
C476       H1462   1.085   1_455  S
H478       C1460   1.084       .  S
C479       H1465   1.086       .  S
C479        C480   1.348       .  D
C480        H482   1.086       .  S
H481       C1463   1.086       .  S
C483        C488   1.399       .  A
C483       C1468   1.406       .  A
C483        H489   1.081       .  S
C484        C485   1.410       .  A
C484       C1467   1.407       .  A
C485        C486   1.405       .  A
C485        H490   1.081       .  S
C486        C487   1.407       .  A
C486        H491   1.082       .  S
C487       C1472   1.407       .  A
C488       C1471   1.408       .  A
C488        H492   1.080       .  S
N493        N494   1.322       .  A
N493        C497   1.358       .  A
N493      Cu1485   2.092       .  S
N494        C495   1.346       .  A
N494       Cu500   2.135       .  S
C495        C496   1.402       .  A
C495        H498   1.082       .  S
C496        C497   1.394       .  A
C496        C661   1.512       .  S
C497        H499   1.082       .  S
Cu500       N503   2.135       .  S
Cu501      N1477   2.098   1_455  S
Cu501       N511   2.102       .  S
Cu502      N1488   2.099   1_455  S
Cu502       N510   2.102       .  S
N503        N504   1.321       .  A
N503        C507   1.346       .  A
N504        C505   1.358       .  A
N504      Cu1486   2.088       .  S
C505        C506   1.393       .  A
C505        H508   1.082       .  S
C506        C507   1.403       .  A
C506        C672   1.511       .  S
C507        H509   1.082       .  S
N510        N511   1.326       .  A
N510        C514   1.348       .  A
N511        C512   1.349       .  A
C512        C513   1.390       .  A
C512        H515   1.081       .  S
C513        C514   1.390       .  A
C513        C976   1.496       .  S
C514        H516   1.081       .  S
N517        N518   1.321   1_455  A
N517        C521   1.347       .  A
N517       Cu525   2.096       .  S
N518        C519   1.342       .  A
N518       Cu524   2.044       .  S
C519        C520   1.379   1_655  A
C519        H522   1.082       .  S
C520        C521   1.389       .  A
C520        C967   1.475       .  S
C521        H523   1.082       .  S
Cu524       N527   2.042       .  S
Cu525       N535   2.097       .  S
Cu526       N528   2.092       .  S
Cu526       N534   2.093       .  S
N527        N528   1.321       .  A
N527        C531   1.341       .  A
N528        C529   1.346       .  A
C529        C530   1.393       .  A
C529        H532   1.081       .  S
C530        C531   1.375       .  A
C530        C972   1.477       .  S
C531        H533   1.082       .  S
N534        N535   1.323   1_655  A
N534        C538   1.348   1_655  A
N535        C536   1.348       .  A
C536        C537   1.392       .  A
C536        H539   1.081       .  S
C537        C538   1.391       .  A
C537        C979   1.498       .  S
C538        H540   1.081   1_455  S
N541        N542   1.322       .  A
N541        C545   1.349       .  A
N541       Cu549   2.083       .  S
N542        C543   1.340       .  A
N542       Cu548   2.049       .  S
C543        C544   1.373       .  A
C543        H546   1.082       .  S
C544        C545   1.385       .  A
C544        C964   1.436       .  S
C545        H547   1.082       .  S
Cu548       N551   2.050       .  S
Cu549       N559   2.085       .  S
Cu550       N552   2.086       .  S
Cu550       N558   2.088       .  S
N551        N552   1.322       .  A
N551        C555   1.342       .  A
N552        C553   1.349       .  A
C553        C554   1.385       .  A
C553        H556   1.082       .  S
C554        C555   1.374       .  A
C554        C961   1.438       .  S
C555        H557   1.082       .  S
N558        N559   1.324       .  A
N558        C562   1.348       .  A
N559        C560   1.347       .  A
C560        C561   1.382       .  A
C560        H563   1.082       .  S
C561        C562   1.383       .  A
C561        C966   1.446   1_554  S
C562        H564   1.082       .  S
N565        N566   1.322       .  A
N565        C569   1.350       .  A
N565       Cu573   2.088       .  S
N566        C567   1.341       .  A
N566       Cu572   2.050       .  S
C567        C568   1.374       .  A
C567        H570   1.082       .  S
C568        C569   1.386       .  A
C568        C960   1.438       .  S
C569        H571   1.082       .  S
Cu572       N575   2.049       .  S
Cu573       N583   2.090       .  S
Cu574       N576   2.087       .  S
Cu574       N582   2.089       .  S
N575        N576   1.322       .  A
N575        C579   1.341       .  A
N576        C577   1.350       .  A
C577        C578   1.386       .  A
C577        H580   1.082       .  S
C578        C579   1.374       .  A
C578        C957   1.439       .  S
C579        H581   1.082       .  S
N582        N583   1.325       .  A
N582        C586   1.348       .  A
N583        C584   1.348       .  A
C584        C585   1.383       .  A
C584        H587   1.082       .  S
C585        C586   1.382       .  A
C585        C965   1.446       .  S
C586        H588   1.082       .  S
N589        N590   1.322       .  A
N589        C593   1.358       .  A
N589       Cu597   2.095       .  S
N590        C591   1.347       .  A
N590       Cu596   2.136       .  S
C591        C592   1.403       .  A
C591        H594   1.082       .  S
C592        C593   1.394       .  A
C592        C639   1.513       .  S
C593        H595   1.082       .  S
Cu596       N599   2.136       .  S
Cu597      N1591   2.098       .  S
Cu598       N600   2.095       .  S
Cu598      N1590   2.097       .  S
N599        N600   1.322       .  A
N599        C603   1.346       .  A
N600        C601   1.359       .  A
C601        C602   1.395       .  A
C601        H604   1.082       .  S
C602        C603   1.402       .  A
C602        C650   1.513       .  S
C603        H605   1.082       .  S
N606        N607   1.326       .  A
N606        C610   1.348       .  A
N606      Cu1582   2.103       .  S
N607        C608   1.349       .  A
N607      Cu1581   2.103       .  S
C608        C609   1.391       .  A
C608        H611   1.081       .  S
C609        C610   1.391       .  A
C609        C948   1.498       .  S
C610        H612   1.081       .  S
N613        N614   1.323       .  A
N613        C617   1.349       .  A
N613       Cu621   2.100       .  S
N614        C615   1.343       .  A
N614       Cu620   2.059       .  S
C615        C616   1.381       .  A
C615        H618   1.082       .  S
C616        C617   1.387       .  A
C616        C943   1.479       .  S
C617        H619   1.082       .  S
Cu620       N623   2.058   1_655  S
Cu621       N631   2.100       .  S
Cu622       N624   2.086       .  S
Cu622       N630   2.086   1_455  S
N623        N624   1.322       .  A
N623        C627   1.346       .  A
N624        C625   1.344       .  A
C625        C626   1.384       .  A
C625        H628   1.082       .  S
C626        C627   1.382       .  A
C626        C940   1.473       .  S
C627        H629   1.082   1_455  S
N630        N631   1.323       .  A
N630        C634   1.347   1_655  A
N631        C632   1.350       .  A
C632        C633   1.393       .  A
C632        H635   1.081       .  S
C633        C634   1.390   1_655  A
C633        C951   1.497       .  S
C634        H636   1.081       .  S
C637        C638   1.387       .  A
C637        C642   1.400       .  A
C637        C963   1.448       .  S
C638        C639   1.409       .  A
C638        H657   1.084       .  S
C639        C640   1.447       .  A
C640        C641   1.430       .  A
C640        C647   1.413       .  A
C641        C642   1.422       .  A
C642        C643   1.402       .  A
C643        H653   1.083       .  S
C644        C645   1.401       .  A
C644        H654   1.082       .  S
C645        C646   1.423       .  A
C645        C652   1.400       .  A
C646        C649   1.430       .  A
C647        H655   1.082       .  S
C648        C649   1.413       .  A
C648        H656   1.082       .  S
C649        C650   1.448       .  A
C650        C651   1.410       .  A
C651        C652   1.385       .  A
C651        H658   1.084       .  S
C652        C962   1.450       .  S
C659        C660   1.386       .  A
C659        C664   1.401       .  A
C659        C959   1.451       .  S
C660        C661   1.410       .  A
C660        H679   1.084       .  S
C661        C662   1.448       .  A
C662        C663   1.429       .  A
C662        C669   1.414       .  A
C663        C664   1.425       .  A
C664        C665   1.400       .  A
C665        H675   1.083       .  S
C666        C667   1.400       .  A
C666        H676   1.083       .  S
C667        C668   1.424       .  A
C667        C674   1.400       .  A
C668        C671   1.428       .  A
C669        H677   1.082       .  S
C670        C671   1.414       .  A
C670        H678   1.082       .  S
C671        C672   1.447       .  A
C672        C673   1.410       .  A
C673        C674   1.386       .  A
C673        H680   1.084       .  S
C674        C958   1.452       .  S
C681       C1666   1.534       .  S
C681        C687   1.534   1_655  S
C681        C685   1.520       .  S
C681        C971   1.509       .  S
C682       C1665   1.532       .  S
C682        H689   1.086       .  S
C682        C683   1.369       .  D
C683       C1176   1.537       .  S
C684       C1175   1.540   1_465  S
C684        C686   1.547       .  S
C684        H690   1.111       .  S
C685        H691   1.085       .  S
C686        C968   1.488       .  S
C687        H692   1.086       .  S
C687        C688   1.367       .  D
C693       C1678   1.535       .  S
C693        C697   1.539   1_655  S
C693        C944   1.516       .  S
C694       C1677   1.531       .  S
C694        H701   1.086       .  S
C695       C1680   1.542   1_545  S
C695        C923   1.476   1_545  S
C696       C1679   1.546   1_565  S
C696        C700   1.547       .  S
C696        C698   1.542   1_565  S
C696        H702   1.109       .  S
C697        H703   1.085       .  S
C698        C928   1.493   1_545  S
C699        H704   1.084   1_545  S
C699        C700   1.364   1_545  D
C700        C939   1.491       .  S
N705        N706   1.322       .  A
N705        C709   1.359   1_545  A
N705       Cu713   2.097   1_545  S
N706        C707   1.346       .  A
N706       Cu712   2.132       .  S
C707        C708   1.401       .  A
C707        H710   1.082       .  S
C708        C709   1.395   1_545  A
C709        H711   1.082       .  S
Cu712       N715   2.132       .  S
Cu713       N723   2.101       .  S
Cu714       N716   2.097   1_565  S
Cu714       N722   2.100       .  S
N715        N716   1.321       .  A
N715        C719   1.345       .  A
N716        C717   1.360   1_545  A
C717        C718   1.396   1_565  A
C717        H720   1.082       .  S
C718        C719   1.402       .  A
C719        H721   1.082       .  S
N722        N723   1.326       .  A
N722        C726   1.348       .  A
N723        C724   1.348       .  A
C724        C725   1.391       .  A
C724        H727   1.081       .  S
C725        C726   1.390       .  A
C725        C914   1.498       .  S
C726        H728   1.081       .  S
N729        N730   1.319       .  A
N729        C733   1.349       .  A
N729       Cu737   2.086       .  S
N730        C731   1.341       .  A
N730       Cu736   2.048       .  S
C731        C732   1.382       .  A
C731        H734   1.082       .  S
C732        C733   1.388       .  A
C732        C924   1.479       .  S
C733        H735   1.082       .  S
Cu736       N739   2.048       .  S
Cu737       N747   2.088       .  S
Cu738       N740   2.114       .  S
Cu738       N746   2.116       .  S
N739        N740   1.322       .  A
N739        C743   1.338       .  A
N740        C741   1.356       .  A
C741        C742   1.394       .  A
C741        H744   1.082       .  S
C742        C743   1.373       .  A
C742        C927   1.477       .  S
C743        H745   1.082       .  S
N746        N747   1.325       .  A
N746        C750   1.351       .  A
N747        C748   1.346       .  A
C748        C749   1.388       .  A
C748        H751   1.081       .  S
C749        C750   1.395       .  A
C749        C917   1.499       .  S
C750        H752   1.081       .  S
N753        N754   1.322       .  A
N753        C757   1.352       .  A
N753       Cu761   2.099       .  S
N754        C755   1.341       .  A
N754       Cu760   2.046       .  S
C755        C756   1.373       .  A
C755        H758   1.082       .  S
C756        C757   1.389       .  A
C756        C909   1.441       .  S
C757        H759   1.082       .  S
Cu760       N763   2.049       .  S
Cu761       N771   2.101       .  S
Cu762       N764   2.085       .  S
Cu762       N770   2.087       .  S
N763        N764   1.322       .  A
N763        C767   1.341       .  A
N764        C765   1.350       .  A
C765        C766   1.385       .  A
C765        H768   1.082       .  S
C766        C767   1.374       .  A
C766        C911   1.437       .  S
C767        H769   1.082       .  S
N770        N771   1.325       .  A
N770        C774   1.348       .  A
N771        C772   1.350       .  A
C772        C773   1.385       .  A
C772        H775   1.082       .  S
C773        C774   1.382       .  A
C773        C908   1.449       .  S
C774        H776   1.082       .  S
N777        N778   1.322       .  A
N777        C781   1.352       .  A
N777       Cu785   2.096       .  S
N778        C779   1.341       .  A
N778       Cu784   2.048       .  S
C779        C780   1.373       .  A
C779        H782   1.082       .  S
C780        C781   1.388       .  A
C780        C905   1.440       .  S
C781        H783   1.082       .  S
Cu784       N787   2.049       .  S
Cu785       N795   2.098       .  S
Cu786       N788   2.086       .  S
Cu786       N794   2.088       .  S
N787        N788   1.321       .  A
N787        C791   1.341       .  A
N788        C789   1.350       .  A
C789        C790   1.386       .  A
C789        H792   1.082       .  S
C790        C791   1.374       .  A
C790        C903   1.438       .  S
C791        H793   1.082       .  S
N794        N795   1.325       .  A
N794        C798   1.347       .  A
N795        C796   1.350       .  A
C796        C797   1.385       .  A
C796        H799   1.082       .  S
C797        C798   1.382       .  A
C797        C907   1.449       .  S
C798        H800   1.082       .  S
N801        N802   1.319       .  A
N801        C805   1.352       .  A
N801       Cu809   2.096       .  S
N802        C803   1.340       .  A
N802       Cu808   2.051       .  S
C803        C804   1.383       .  A
C803        H806   1.081       .  S
C804        C805   1.391       .  A
C804        C932   1.485       .  S
C805        H807   1.082       .  S
Cu808       N811   2.052       .  S
Cu809       N819   2.099       .  S
Cu810       N812   2.109       .  S
Cu810       N818   2.111       .  S
N811        N812   1.321       .  A
N811        C815   1.340       .  A
N812        C813   1.354       .  A
C813        C814   1.394       .  A
C813        H816   1.082       .  S
C814        C815   1.376       .  A
C814        C936   1.479       .  S
C815        H817   1.082       .  S
N818        N819   1.326       .  A
N818        C822   1.351       .  A
N819        C820   1.346       .  A
C820        C821   1.390       .  A
C820        H823   1.081       .  S
C821        C822   1.393       .  A
C821        C894   1.501       .  S
C822        H824   1.081       .  S
N825        N826   1.322       .  A
N825        C829   1.359       .  A
N825       Cu833   2.100       .  S
N826        C827   1.345       .  A
N826       Cu832   2.128       .  S
C827        C828   1.402       .  A
C827        H830   1.082       .  S
C828        C829   1.396       .  A
C828        C851   1.516       .  S
C829        H831   1.082       .  S
Cu832       N835   2.128       .  S
Cu833       N843   2.103       .  S
Cu834       N836   2.106       .  S
Cu834       N842   2.108       .  S
N835        N836   1.321       .  A
N835        C839   1.347       .  A
N836        C837   1.360       .  A
C837        C838   1.397       .  A
C837        H840   1.082       .  S
C838        C839   1.400       .  A
C838        C862   1.513       .  S
C839        H841   1.082       .  S
N842        N843   1.326       .  A
N842        C846   1.348       .  A
N843        C844   1.350       .  A
C844        C845   1.392       .  A
C844        H847   1.081       .  S
C845        C846   1.392       .  A
C845        C897   1.501       .  S
C846        H848   1.081       .  S
C849        C850   1.387       .  A
C849        C854   1.400       .  A
C849        C906   1.452       .  S
C850        H869   1.084       .  S
C851        C852   1.448       .  A
C852        C859   1.414       .  A
C853        C854   1.424       .  A
C853       C1842   1.431   1_455  A
C854        C855   1.400       .  A
C855       C1840   1.374   1_455  A
C855        H865   1.083       .  S
C856       C1839   1.376       .  A
C856        C857   1.402       .  A
C856        H866   1.083       .  S
C857        C858   1.423       .  A
C857        C864   1.401       .  A
C858       C1837   1.432       .  A
C859       C1844   1.420       .  A
C859        H867   1.082       .  S
C860       C1843   1.418       .  A
C860        C861   1.412       .  A
C860        H868   1.082       .  S
C861        C862   1.445       .  A
C863        C864   1.388       .  A
C863        H870   1.084       .  S
C864        C904   1.450       .  S
C871        C872   1.388       .  A
C871        C876   1.402       .  A
C871        C912   1.449       .  S
C872        C873   1.408       .  A
C872        H891   1.085       .  S
C873        C874   1.445       .  A
C874        C875   1.428       .  A
C874        C881   1.413       .  A
C875        C876   1.423       .  A
C875       C1864   1.432   1_455  A
C876        C877   1.402       .  A
C877       C1862   1.377   1_455  A
C877        H887   1.083       .  S
C878       C1861   1.374       .  A
C878        C879   1.401       .  A
C878        H888   1.083       .  S
C879        C880   1.425       .  A
C879        C886   1.401       .  A
C880       C1859   1.433       .  A
C880        C883   1.429       .  A
C881       C1866   1.419   1_455  A
C881        H889   1.082       .  S
C882       C1865   1.420       .  A
C882        C883   1.415       .  A
C882        H890   1.081       .  S
C883        C884   1.448       .  A
C884        C885   1.412       .  A
C885        C886   1.388       .  A
C885        H892   1.083       .  S
C886        C910   1.454       .  S
C893        C894   1.409       .  A
C893        C898   1.407       .  A
C893        H899   1.081       .  S
C895        C896   1.403       .  A
C895        H900   1.081       .  S
C896        H901   1.081       .  S
C897        C898   1.410       .  A
C898        H902   1.081       .  S
C903        C904   1.207       .  T
C905        C906   1.208       .  T
C907        C908   1.213       .  T
C909        C910   1.209       .  T
C911        C912   1.206       .  T
C913        C914   1.407       .  A
C913        C918   1.402       .  A
C913        H919   1.081       .  S
C914        C915   1.409       .  A
C915        C916   1.404       .  A
C915        H920   1.081       .  S
C916        C917   1.407       .  A
C916        H921   1.081       .  S
C917        C918   1.409       .  A
C918        H922   1.081       .  S
C923        H925   1.086       .  S
C923        C924   1.344       .  D
C924        H926   1.086       .  S
C927        H929   1.085   1_565  S
C927        C928   1.342       .  D
C928        H930   1.086       .  S
C931        H933   1.086       .  S
C931        C932   1.347       .  D
C935        H937   1.086       .  S
C935        C936   1.341       .  D
C939       H1925   1.085       .  S
C939        C940   1.350       .  D
C940        H942   1.083       .  S
H941       C1923   1.085       .  S
C943       H1929   1.086       .  S
C943        C944   1.348       .  D
C944        H946   1.086       .  S
H945       C1927   1.086       .  S
C947       C1932   1.408       .  A
C947        C952   1.404       .  A
C947        H953   1.082       .  S
C948       C1931   1.407       .  A
C948        C949   1.409       .  A
C949        C950   1.405       .  A
C949        H954   1.082       .  S
C950        C951   1.408       .  A
C950        H955   1.082       .  S
C951       C1936   1.408       .  A
C952       C1935   1.408       .  A
C952        H956   1.081       .  S
C957        C958   1.208       .  T
C959        C960   1.207       .  T
C961        C962   1.207       .  T
C963        C964   1.206       .  T
C965        C966   1.211       .  T
C967        H969   1.084       .  S
C967        C968   1.352       .  D
C968       H1954   1.085   1_455  S
H970       C1952   1.085       .  S
C971       H1957   1.086       .  S
C971        C972   1.336       .  D
C972        H974   1.087       .  S
H973       C1955   1.087       .  S
C975       C1960   1.407       .  A
C975        C980   1.402       .  A
C975        H981   1.082       .  S
C976       C1959   1.407       .  A
C976        C977   1.408       .  A
C977        C978   1.404       .  A
C977        H982   1.082       .  S
C978        C979   1.409       .  A
C978        H983   1.081       .  S
C979       C1964   1.408       .  A
C980       C1963   1.407       .  A
C980        H984   1.081       .  S
N985        N986   1.321       .  A
N985        C989   1.360       .  A
N986        C987   1.345       .  A
N986       Cu992   2.134       .  S
C987        C988   1.404       .  A
C987        H990   1.082       .  S
C988        C989   1.397       .  A
C988       C1153   1.519       .  S
C989        H991   1.082   1_655  S
Cu992       N995   2.135       .  S
Cu993      N1003   2.099       .  S
Cu994      N1002   2.100       .  S
N995        N996   1.322       .  A
N995        C999   1.346       .  A
N996        C997   1.361       .  A
C997        C998   1.398       .  A
C997       H1000   1.082   1_655  S
C998        C999   1.403       .  A
C998       C1164   1.518       .  S
C999       H1001   1.082       .  S
N1002      N1003   1.326       .  A
N1002      C1006   1.347       .  A
N1003      C1004   1.348       .  A
C1004      C1005   1.389       .  A
C1004      H1007   1.081       .  S
C1005      C1006   1.390       .  A
C1005      C1468   1.495       .  S
C1006      H1008   1.081       .  S
N1009      N1010   1.319       .  A
N1009      C1013   1.345       .  A
N1009     Cu1017   2.079       .  S
N1010      C1011   1.341       .  A
N1010     Cu1016   2.039       .  S
C1011      C1012   1.381       .  A
C1011      H1014   1.081       .  S
C1012      C1013   1.386       .  A
C1012      C1459   1.473       .  S
C1013      H1015   1.082       .  S
Cu1016     N1019   2.040       .  S
Cu1017     N1027   2.080       .  S
Cu1018     N1020   2.099       .  S
Cu1018     N1026   2.100       .  S
N1019      N1020   1.322       .  A
N1019      C1023   1.340       .  A
N1020      C1021   1.349       .  A
C1021      C1022   1.393       .  A
C1021      H1024   1.081       .  S
C1022      C1023   1.373       .  A
C1022      C1464   1.475       .  S
C1023      H1025   1.082       .  S
N1026      N1027   1.323       .  A
N1026      C1030   1.350       .  A
N1027      C1028   1.343       .  A
C1028      C1029   1.388       .  A
C1028      H1031   1.080       .  S
C1029      C1030   1.393       .  A
C1029      C1471   1.495       .  S
C1030      H1032   1.081       .  S
N1033      N1034   1.322       .  A
N1033      C1037   1.351       .  A
N1033     Cu1041   2.091       .  S
N1034      C1035   1.341       .  A
N1034     Cu1040   2.050       .  S
C1035      C1036   1.374       .  A
C1035      H1038   1.082       .  S
C1036      C1037   1.387       .  A
C1036      C1456   1.441       .  S
C1037      H1039   1.082   1_655  S
Cu1040     N1043   2.049       .  S
Cu1041     N1051   2.092       .  S
Cu1042     N1044   2.104       .  S
Cu1042     N1050   2.105       .  S
N1043      N1044   1.322       .  A
N1043      C1047   1.342       .  A
N1044      C1045   1.353       .  A
C1045      C1046   1.390       .  A
C1045      H1048   1.082   1_655  S
C1046      C1047   1.375       .  A
C1046      C1453   1.445       .  S
C1047      H1049   1.082       .  S
N1050      N1051   1.325       .  A
N1050      C1054   1.351       .  A
N1051      C1052   1.350       .  A
C1052      C1053   1.384       .  A
C1052      H1055   1.082       .  S
C1053      C1054   1.386       .  A
C1053      C1458   1.453   1_554  S
C1054      H1056   1.082       .  S
N1057      N1058   1.322       .  A
N1057      C1061   1.350       .  A
N1057     Cu1065   2.095       .  S
N1058      C1059   1.343       .  A
N1058     Cu1064   2.052       .  S
C1059      C1060   1.376       .  A
C1059      H1062   1.082       .  S
C1060      C1061   1.386       .  A
C1060      C1452   1.442       .  S
C1061      H1063   1.082       .  S
Cu1064     N1067   2.049       .  S
Cu1065     N1075   2.096       .  S
Cu1066     N1068   2.092       .  S
Cu1066     N1074   2.094       .  S
N1067      N1068   1.323       .  A
N1067      C1071   1.341       .  A
N1068      C1069   1.350       .  A
C1069      C1070   1.386       .  A
C1069      H1072   1.082   1_655  S
C1070      C1071   1.373       .  A
C1070      C1449   1.438       .  S
C1071      H1073   1.082       .  S
N1074      N1075   1.324       .  A
N1074      C1078   1.349       .  A
N1075      C1076   1.350       .  A
C1076      C1077   1.385       .  A
C1076      H1079   1.082       .  S
C1077      C1078   1.384       .  A
C1077      C1457   1.453       .  S
C1078      H1080   1.082       .  S
N1081      N1082   1.322       .  A
N1081      C1085   1.360       .  A
N1081     Cu1089   2.103       .  S
N1082      C1083   1.346       .  A
N1082     Cu1088   2.129       .  S
C1083      C1084   1.402       .  A
C1083      H1086   1.082       .  S
C1084      C1085   1.396       .  A
C1084      C1131   1.515       .  S
C1085      H1087   1.081       .  S
Cu1088     N1091   2.129       .  S
Cu1090     N1092   2.107       .  S
N1091      N1092   1.322       .  A
N1091      C1095   1.346       .  A
N1092      C1093   1.360       .  A
C1093      C1094   1.397       .  A
C1093      H1096   1.082       .  S
C1094      C1095   1.401       .  A
C1094      C1142   1.517       .  S
C1095      H1097   1.082       .  S
N1098      N1099   1.325       .  A
N1098      C1102   1.344       .  A
N1099      C1100   1.348       .  A
C1100      C1101   1.390       .  A
C1100      H1103   1.081       .  S
C1101      C1102   1.389       .  A
C1101      C1440   1.492       .  S
C1102      H1104   1.080       .  S
N1105      N1106   1.322       .  A
N1105      C1109   1.346       .  A
N1105     Cu1113   2.082       .  S
N1106      C1107   1.343       .  A
N1106     Cu1112   2.061       .  S
C1107      C1108   1.382       .  A
C1107      H1110   1.082       .  S
C1108      C1109   1.383       .  A
C1108      C1435   1.473       .  S
C1109      H1111   1.082       .  S
Cu1112     N1115   2.060       .  S
Cu1113     N1123   2.082       .  S
Cu1114     N1116   2.077       .  S
Cu1114     N1122   2.077       .  S
N1115      N1116   1.321       .  A
N1115      C1119   1.344       .  A
N1116      C1117   1.345       .  A
C1117      C1118   1.384       .  A
C1117      H1120   1.082       .  S
C1118      C1119   1.384       .  A
C1118      C1432   1.475       .  S
C1119      H1121   1.081       .  S
N1122      N1123   1.322       .  A
N1122      C1126   1.344       .  A
N1123      C1124   1.347       .  A
C1124      C1125   1.390       .  A
C1124      H1127   1.081       .  S
C1125      C1126   1.389       .  A
C1125      C1443   1.490       .  S
C1126      H1128   1.081       .  S
C1129      C1130   1.387       .  A
C1129      C1134   1.400       .  A
C1129      C1455   1.453       .  S
C1130      C1131   1.412       .  A
C1130      H1149   1.083       .  S
C1131      C1132   1.449       .  A
C1132      C1133   1.429       .  A
C1132      C1139   1.414       .  A
C1133      C1134   1.424       .  A
C1133      C1630   1.433   1_545  A
C1134      C1135   1.401       .  A
C1135      C1628   1.374   1_545  A
C1135      H1145   1.083       .  S
C1136      C1627   1.376       .  A
C1136      C1137   1.401       .  A
C1136      H1146   1.083       .  S
C1137      C1138   1.425       .  A
C1137      C1144   1.403       .  A
C1138      C1625   1.434       .  A
C1138      C1141   1.429       .  A
C1139      C1632   1.422   1_545  A
C1139      H1147   1.082       .  S
C1140      C1631   1.420       .  A
C1140      C1141   1.414       .  A
C1140      H1148   1.082       .  S
C1141      C1142   1.448       .  A
C1142      C1143   1.413       .  A
C1143      C1144   1.390       .  A
C1143      H1150   1.083       .  S
C1144      C1454   1.458       .  S
C1151      C1152   1.386       .  A
C1151      C1156   1.400       .  A
C1151      C1451   1.454       .  S
C1152      C1153   1.413       .  A
C1152      H1171   1.082       .  S
C1153      C1154   1.451       .  A
C1154      C1155   1.430       .  A
C1154      C1161   1.415       .  A
C1155      C1156   1.424       .  A
C1155      C1652   1.433   1_545  A
C1156      C1157   1.400       .  A
C1157      C1650   1.374   1_545  A
C1157      H1167   1.083       .  S
C1158      C1649   1.375       .  A
C1158      C1159   1.402       .  A
C1158      H1168   1.082   1_655  S
C1159      C1160   1.422       .  A
C1159      C1166   1.401       .  A
C1160      C1647   1.434       .  A
C1160      C1163   1.432       .  A
C1161      C1654   1.422   1_545  A
C1161      H1169   1.081       .  S
C1162      C1653   1.421       .  A
C1162      C1163   1.413       .  A
C1162      H1170   1.082       .  S
C1163      C1164   1.450       .  A
C1164      C1165   1.411       .  A
C1165      C1166   1.388       .  A
C1165      H1172   1.084       .  S
C1166      C1450   1.451       .  S
C1173      C1179   1.534       .  S
C1173      C1177   1.520       .  S
C1173      C1463   1.509       .  S
C1174      H1181   1.085       .  S
C1174      C1175   1.370       .  D
C1175      C1915   1.489       .  S
C1176      C1672   1.542       .  S
C1176      C1178   1.547       .  S
C1176      H1182   1.111       .  S
C1177      H1183   1.085       .  S
C1177      C1670   1.364   1_545  D
C1178      C1669   1.367       .  D
C1178      C1460   1.487       .  S
C1179      H1184   1.086       .  S
C1179      C1180   1.370       .  D
C1180      C1668   1.547   1_545  S
C1180      C1919   1.484       .  S
C1185      C1683   1.529       .  S
C1185      C1189   1.533       .  S
C1185      C1436   1.511       .  S
C1186      H1193   1.086   1_455  S
C1186      C1679   1.368       .  D
C1187      C1678   1.372       .  D
C1187      C1415   1.487       .  S
C1188      C1192   1.541       .  S
C1188      C1190   1.535       .  S
C1188      H1194   1.110       .  S
C1189      H1195   1.085       .  S
C1189      C1682   1.372       .  D
C1190      C1681   1.365       .  D
C1190      C1420   1.476       .  S
C1191      C1677   1.532       .  S
C1191      H1196   1.084       .  S
C1191      C1192   1.367       .  D
C1192      C1431   1.486       .  S
N1197      N1198   1.322       .  A
N1197      C1201   1.359       .  A
N1197     Cu1205   2.102       .  S
N1198      C1199   1.346       .  A
N1198     Cu1204   2.130       .  S
C1199      C1200   1.402       .  A
C1199      H1202   1.082       .  S
C1200      C1201   1.396       .  A
C1200      C1868   1.516       .  S
C1201      H1203   1.082       .  S
Cu1204     N1207   2.130       .  S
Cu1205     N1215   2.105       .  S
Cu1206     N1208   2.100       .  S
Cu1206     N1214   2.103       .  S
N1207      N1208   1.321       .  A
N1207      C1211   1.345       .  A
N1208      C1209   1.360       .  A
C1209      C1210   1.397       .  A
C1209      H1212   1.082       .  S
C1210      C1211   1.403       .  A
C1210      C1857   1.516       .  S
C1211      H1213   1.082       .  S
N1214      N1215   1.326       .  A
N1214      C1218   1.347       .  A
N1215      C1216   1.350       .  A
C1216      C1217   1.391       .  A
C1216      H1219   1.081       .  S
C1217      C1218   1.391       .  A
C1217      C1406   1.499       .  S
C1218      H1220   1.081       .  S
N1221      N1222   1.323       .  A
N1221      C1225   1.352       .  A
N1221     Cu1229   2.105       .  S
N1222      C1223   1.342       .  A
N1222     Cu1228   2.060       .  S
C1223      C1224   1.377       .  A
C1223      H1226   1.082       .  S
C1224      C1225   1.391       .  A
C1224      C1416   1.479       .  S
C1225      H1227   1.082       .  S
Cu1228     N1231   2.059       .  S
Cu1229     N1239   2.106       .  S
Cu1230     N1232   2.081       .  S
Cu1230     N1238   2.084       .  S
N1231      N1232   1.321       .  A
N1231      C1235   1.342       .  A
N1232      C1233   1.348       .  A
C1233      C1234   1.385       .  A
C1233      H1236   1.082       .  S
C1234      C1235   1.381       .  A
C1234      C1419   1.472       .  S
C1235      H1237   1.082       .  S
N1238      N1239   1.323       .  A
N1238      C1242   1.345       .  A
N1239      C1240   1.351       .  A
C1240      C1241   1.395       .  A
C1240      H1243   1.081       .  S
C1241      C1242   1.389       .  A
C1241      C1409   1.499       .  S
C1242      H1244   1.081       .  S
N1245      N1246   1.322   1_565  A
N1245      C1249   1.351       .  A
N1245     Cu1253   2.093       .  S
N1246      C1247   1.342       .  A
N1246     Cu1252   2.051       .  S
C1247      C1248   1.375       .  A
C1247      H1250   1.082       .  S
C1248      C1249   1.388   1_545  A
C1248      C1401   1.442       .  S
C1249      H1251   1.082       .  S
Cu1252     N1255   2.051       .  S
Cu1253     N1263   2.094       .  S
Cu1254     N1256   2.084   1_565  S
Cu1254     N1262   2.087       .  S
N1255      N1256   1.322       .  A
N1255      C1259   1.342       .  A
N1256      C1257   1.349   1_545  A
C1257      C1258   1.385   1_565  A
C1257      H1260   1.082       .  S
C1258      C1259   1.374       .  A
C1258      C1403   1.438       .  S
C1259      H1261   1.082       .  S
N1262      N1263   1.325       .  A
N1262      C1266   1.348       .  A
N1263      C1264   1.348       .  A
C1264      C1265   1.383       .  A
C1264      H1267   1.082       .  S
C1265      C1266   1.383       .  A
C1265      C1400   1.448       .  S
C1266      H1268   1.082       .  S
N1269      N1270   1.322   1_565  A
N1269      C1273   1.350       .  A
N1269     Cu1277   2.089       .  S
N1270      C1271   1.342   1_545  A
N1270     Cu1276   2.052       .  S
C1271      C1272   1.375       .  A
C1271      H1274   1.082   1_565  S
C1272      C1273   1.386       .  A
C1272      C1397   1.441       .  S
C1273      H1275   1.082       .  S
Cu1276     N1279   2.048       .  S
Cu1277     N1287   2.090       .  S
Cu1278     N1280   2.093       .  S
Cu1278     N1286   2.093       .  S
N1279      N1280   1.322   1_545  A
N1279      C1283   1.342       .  A
N1280      C1281   1.350       .  A
C1281      C1282   1.386       .  A
C1281      H1284   1.082       .  S
C1282      C1283   1.373   1_565  A
C1282      C1395   1.439       .  S
C1283      H1285   1.082       .  S
N1286      N1287   1.324       .  A
N1286      C1290   1.349       .  A
N1287      C1288   1.348       .  A
C1288      C1289   1.382       .  A
C1288      H1291   1.082       .  S
C1289      C1290   1.384       .  A
C1289      C1399   1.448       .  S
C1290      H1292   1.082       .  S
N1293      N1294   1.322       .  A
N1293      C1297   1.353       .  A
N1293     Cu1301   2.103       .  S
N1294      C1295   1.339       .  A
N1294     Cu1300   2.051       .  S
C1295      C1296   1.375       .  A
C1295      H1298   1.082       .  S
C1296      C1297   1.392       .  A
C1296      C1424   1.475       .  S
C1297      H1299   1.082       .  S
Cu1300     N1303   2.051       .  S
Cu1301     N1311   2.105       .  S
Cu1302     N1304   2.091       .  S
Cu1302     N1310   2.093       .  S
N1303      N1304   1.319       .  A
N1303      C1307   1.341       .  A
N1304      C1305   1.350       .  A
C1305      C1306   1.389       .  A
C1305      H1308   1.082       .  S
C1306      C1307   1.384       .  A
C1306      C1428   1.483       .  S
C1307      H1309   1.081       .  S
N1310      N1311   1.325       .  A
N1310      C1314   1.346       .  A
N1311      C1312   1.350       .  A
C1312      C1313   1.393       .  A
C1312      H1315   1.081       .  S
C1313      C1314   1.389       .  A
C1313      C1386   1.498       .  S
C1314      H1316   1.081       .  S
N1317      N1318   1.321       .  A
N1317      C1321   1.358       .  A
N1317     Cu1325   2.093       .  S
N1318      C1319   1.346       .  A
N1318     Cu1324   2.130       .  S
C1319      C1320   1.402       .  A
C1319      H1322   1.082       .  S
C1320      C1321   1.394       .  A
C1320      C1343   1.513       .  S
C1321      H1323   1.082       .  S
Cu1324     N1327   2.130       .  S
Cu1325     N1335   2.096       .  S
Cu1326     N1328   2.100       .  S
Cu1326     N1334   2.103       .  S
N1327      N1328   1.322       .  A
N1327      C1331   1.346       .  A
N1328      C1329   1.359       .  A
C1329      C1330   1.396       .  A
C1329      H1332   1.082       .  S
C1330      C1331   1.402       .  A
C1330      C1354   1.513       .  S
C1331      H1333   1.082       .  S
N1334      N1335   1.325       .  A
N1334      C1338   1.349       .  A
N1335      C1336   1.347       .  A
C1336      C1337   1.391       .  A
C1336      H1339   1.081       .  S
C1337      C1338   1.392       .  A
C1337      C1389   1.498       .  S
C1338      H1340   1.081       .  S
C1341      C1342   1.388       .  A
C1341      C1346   1.404       .  A
C1341      C1398   1.453       .  S
C1342      C1835   1.410       .  A
C1342      H1361   1.083       .  S
C1343      C1834   1.410       .  A
C1343      C1344   1.446       .  A
C1344      C1837   1.429       .  A
C1344      C1351   1.414       .  A
C1345      C1836   1.428       .  A
C1345      C1346   1.424       .  A
C1346      C1347   1.401       .  A
C1347      H1357   1.083       .  S
C1348      C1349   1.402   1_455  A
C1348      H1358   1.082   1_455  S
C1349      C1350   1.423   1_655  A
C1349      C1356   1.401       .  A
C1350      C1845   1.428   1_455  A
C1351      H1359   1.082       .  S
C1352      C1353   1.413       .  A
C1352      H1360   1.082       .  S
C1353      C1842   1.430       .  A
C1353      C1354   1.447       .  A
C1354      C1847   1.411       .  A
C1355      C1846   1.410       .  A
C1355      C1356   1.387       .  A
C1355      H1362   1.085       .  S
C1356      C1396   1.451       .  S
C1363      C1364   1.387   1_565  A
C1363      C1368   1.399       .  A
C1363      C1404   1.450       .  S
C1364      C1365   1.412       .  A
C1364      H1383   1.083       .  S
C1365      C1366   1.447       .  A
C1365      C1702   1.514       .  S
C1366      C1367   1.430   1_545  A
C1366      C1373   1.413       .  A
C1367      C1368   1.422       .  A
C1368      C1369   1.402       .  A
C1369      H1379   1.083       .  S
C1370      C1371   1.401   1_465  A
C1370      H1380   1.082       .  S
C1371      C1372   1.424   1_655  A
C1371      C1378   1.401       .  A
C1372      C1375   1.429   1_455  A
C1373      H1381   1.082       .  S
C1374      C1375   1.414   1_455  A
C1374      H1382   1.081       .  S
C1375      C1376   1.447       .  A
C1376      C1377   1.413       .  A
C1376      C1692   1.516       .  S
C1377      C1378   1.389       .  A
C1377      H1384   1.083       .  S
C1378      C1402   1.455       .  S
C1385      C1386   1.408       .  A
C1385      C1390   1.402       .  A
C1385      H1391   1.081       .  S
C1386      C1879   1.408       .  A
C1387      C1878   1.408       .  A
C1387      C1388   1.401       .  A
C1387      H1392   1.081       .  S
C1388      C1881   1.406       .  A
C1388      H1393   1.081       .  S
C1389      C1880   1.408       .  A
C1389      C1390   1.408       .  A
C1390      H1394   1.081       .  S
C1395      C1396   1.207       .  T
C1397      C1398   1.209       .  T
C1399      C1400   1.212       .  T
C1401      C1402   1.209       .  T
C1403      C1404   1.207   1_545  T
C1405      C1406   1.409       .  A
C1405      C1410   1.406       .  A
C1405      H1411   1.082       .  S
C1406      C1407   1.407       .  A
C1407      C1408   1.401       .  A
C1407      H1412   1.081       .  S
C1408      C1409   1.408       .  A
C1408      H1413   1.081       .  S
C1409      C1410   1.408       .  A
C1410      H1414   1.081       .  S
C1415      H1417   1.086       .  S
C1415      C1416   1.341       .  D
C1416      H1418   1.086       .  S
C1419      H1421   1.087       .  S
C1419      C1420   1.342       .  D
C1420      H1422   1.087       .  S
C1423      H1425   1.086       .  S
C1423      C1424   1.341       .  D
C1423      C1667   1.487       .  S
C1424      H1918   1.086       .  S
H1426      C1916   1.085       .  S
C1427      H1429   1.085       .  S
C1427      C1428   1.345       .  D
C1427      C1672   1.477       .  S
C1428      H1922   1.087       .  S
H1430      C1920   1.085   1_565  S
C1431      C1432   1.347       .  D
C1432      H1434   1.084       .  S
C1435      C1436   1.345       .  D
C1436      H1438   1.086       .  S
C1439      C1444   1.403       .  A
C1439      H1445   1.081       .  S
C1440      C1441   1.408       .  A
C1441      C1442   1.403       .  A
C1441      H1446   1.081       .  S
C1442      C1443   1.407       .  A
C1442      H1447   1.082       .  S
C1444      H1448   1.081       .  S
C1449      C1450   1.207       .  T
C1451      C1452   1.209       .  T
C1453      C1454   1.212       .  T
C1455      C1456   1.209       .  T
C1457      C1458   1.215       .  T
C1459      H1461   1.081       .  S
C1459      C1460   1.350       .  D
C1463      C1464   1.336       .  D
C1464      H1466   1.087       .  S
C1467      C1472   1.402       .  A
C1467      H1473   1.081       .  S
C1468      C1469   1.409       .  A
C1469      C1470   1.404       .  A
C1469      H1474   1.081       .  S
C1470      C1471   1.407       .  A
C1470      H1475   1.081       .  S
C1472      H1476   1.082       .  S
N1477      N1478   1.322       .  A
N1477      C1481   1.360       .  A
N1478      C1479   1.345       .  A
N1478     Cu1484   2.133       .  S
C1479      C1480   1.402       .  A
C1479      H1482   1.082       .  S
C1480      C1481   1.396       .  A
C1480      C1645   1.517       .  S
C1481      H1483   1.082   1_655  S
Cu1484     N1487   2.134       .  S
Cu1485     N1495   2.095       .  S
Cu1486     N1494   2.091       .  S
N1487      N1488   1.321       .  A
N1487      C1491   1.346       .  A
N1488      C1489   1.361       .  A
C1489      C1490   1.396       .  A
C1489      H1492   1.082   1_655  S
C1490      C1491   1.403       .  A
C1490      C1656   1.517       .  S
C1491      H1493   1.082       .  S
N1494      N1495   1.325       .  A
N1494      C1498   1.347       .  A
N1495      C1496   1.347       .  A
C1496      C1497   1.389       .  A
C1496      H1499   1.082       .  S
C1497      C1498   1.387       .  A
C1497      C1960   1.490       .  S
C1498      H1500   1.082       .  S
N1501      N1502   1.321       .  A
N1501      C1505   1.345       .  A
N1501     Cu1509   2.092       .  S
N1502      C1503   1.342       .  A
N1502     Cu1508   2.042       .  S
C1503      C1504   1.379       .  A
C1503      H1506   1.082       .  S
C1504      C1505   1.386       .  A
C1504      C1951   1.471       .  S
C1505      H1507   1.082       .  S
Cu1508     N1511   2.041       .  S
Cu1509     N1519   2.093       .  S
Cu1510     N1512   2.077       .  S
Cu1510     N1518   2.078       .  S
N1511      N1512   1.321       .  A
N1511      C1515   1.339       .  A
N1512      C1513   1.346       .  A
C1513      C1514   1.384       .  A
C1513      H1516   1.082       .  S
C1514      C1515   1.378       .  A
C1514      C1956   1.468       .  S
C1515      H1517   1.082       .  S
N1518      N1519   1.322       .  A
N1518      C1522   1.345       .  A
N1519      C1520   1.348       .  A
C1520      C1521   1.392       .  A
C1520      H1523   1.081       .  S
C1521      C1522   1.388       .  A
C1521      C1963   1.493       .  S
C1522      H1524   1.081       .  S
N1525      N1526   1.321       .  A
N1525      C1529   1.350       .  A
N1525     Cu1533   2.085       .  S
N1526      C1527   1.341       .  A
N1526     Cu1532   2.048       .  S
C1527      C1528   1.374       .  A
C1527      H1530   1.082       .  S
C1528      C1529   1.385       .  A
C1528      C1948   1.437       .  S
C1529      H1531   1.082   1_655  S
Cu1532     N1535   2.047       .  S
Cu1533     N1543   2.087   1_655  S
Cu1534     N1536   2.098       .  S
Cu1534     N1542   2.101   1_655  S
N1535      N1536   1.322       .  A
N1535      C1539   1.340       .  A
N1536      C1537   1.352       .  A
C1537      C1538   1.388       .  A
C1537      H1540   1.082   1_655  S
C1538      C1539   1.372       .  A
C1538      C1945   1.440       .  S
C1539      H1541   1.082       .  S
N1542      N1543   1.325       .  A
N1542      C1546   1.351       .  A
N1543      C1544   1.347       .  A
C1544      C1545   1.381       .  A
C1544      H1547   1.082       .  S
C1545      C1546   1.386       .  A
C1545      C1950   1.450   1_554  S
C1546      H1548   1.082       .  S
N1549      N1550   1.321       .  A
N1549      C1553   1.354       .  A
N1549     Cu1557   2.109       .  S
N1550      C1551   1.341       .  A
N1550     Cu1556   2.046       .  S
C1551      C1552   1.374       .  A
C1551      H1554   1.082       .  S
C1552      C1553   1.392       .  A
C1552      C1944   1.446       .  S
C1553      H1555   1.082   1_655  S
Cu1556     N1559   2.047       .  S
Cu1557     N1567   2.111   1_655  S
Cu1558     N1560   2.082       .  S
Cu1558     N1566   2.084   1_655  S
N1559      N1560   1.322       .  A
N1559      C1563   1.340       .  A
N1560      C1561   1.350       .  A
C1561      C1562   1.385       .  A
C1561      H1564   1.082   1_655  S
C1562      C1563   1.373       .  A
C1562      C1941   1.436       .  S
C1563      H1565   1.082       .  S
N1566      N1567   1.326       .  A
N1566      C1570   1.348       .  A
N1567      C1568   1.351       .  A
C1568      C1569   1.386       .  A
C1568      H1571   1.082       .  S
C1569      C1570   1.381       .  A
C1569      C1949   1.450       .  S
C1570      H1572   1.082       .  S
N1573      N1574   1.322       .  A
N1573      C1577   1.361       .  A
N1573     Cu1581   2.100       .  S
N1574      C1575   1.347       .  A
N1574     Cu1580   2.141       .  S
C1575      C1576   1.404       .  A
C1575      H1578   1.082       .  S
C1576      C1577   1.396       .  A
C1576      C1623   1.519       .  S
C1577      H1579   1.081       .  S
Cu1580     N1583   2.140       .  S
Cu1582     N1584   2.100       .  S
N1583      N1584   1.322       .  A
N1583      C1587   1.347       .  A
N1584      C1585   1.361       .  A
C1585      C1586   1.396       .  A
C1585      H1588   1.082       .  S
C1586      C1587   1.404       .  A
C1586      C1634   1.518       .  S
C1587      H1589   1.082       .  S
N1590      N1591   1.326       .  A
N1590      C1594   1.348       .  A
N1591      C1592   1.348       .  A
C1592      C1593   1.390       .  A
C1592      H1595   1.081       .  S
C1593      C1594   1.389       .  A
C1593      C1932   1.494       .  S
C1594      H1596   1.081       .  S
N1597      N1598   1.321       .  A
N1597      C1601   1.346       .  A
N1597     Cu1605   2.080       .  S
N1598      C1599   1.343       .  A
N1598     Cu1604   2.060       .  S
C1599      C1600   1.382       .  A
C1599      H1602   1.082       .  S
C1600      C1601   1.384       .  A
C1600      C1927   1.474       .  S
C1601      H1603   1.082       .  S
Cu1604     N1607   2.060       .  S
Cu1605     N1615   2.081       .  S
Cu1606     N1608   2.096       .  S
Cu1606     N1614   2.096       .  S
N1607      N1608   1.323       .  A
N1607      C1611   1.346       .  A
N1608      C1609   1.346       .  A
C1609      C1610   1.386       .  A
C1609      H1612   1.082       .  S
C1610      C1611   1.383       .  A
C1610      C1924   1.478       .  S
C1611      H1613   1.082       .  S
N1614      N1615   1.322       .  A
N1614      C1618   1.349       .  A
N1615      C1616   1.345       .  A
C1616      C1617   1.389       .  A
C1616      H1619   1.081       .  S
C1617      C1618   1.393       .  A
C1617      C1935   1.496       .  S
C1618      H1620   1.081       .  S
C1621      C1622   1.387       .  A
C1621      C1626   1.400       .  A
C1621      C1947   1.450       .  S
C1622      C1623   1.410       .  A
C1622      H1641   1.084       .  S
C1623      C1624   1.451       .  A
C1624      C1625   1.432       .  A
C1624      C1631   1.413       .  A
C1625      C1626   1.423       .  A
C1626      C1627   1.402       .  A
C1627      H1637   1.083       .  S
C1628      C1629   1.401       .  A
C1628      H1638   1.083   1_655  S
C1629      C1630   1.423       .  A
C1629      C1636   1.400       .  A
C1630      C1633   1.431       .  A
C1631      H1639   1.081       .  S
C1632      C1633   1.414       .  A
C1632      H1640   1.082       .  S
C1633      C1634   1.451       .  A
C1634      C1635   1.411       .  A
C1635      C1636   1.387       .  A
C1635      H1642   1.084       .  S
C1636      C1946   1.452       .  S
C1643      C1644   1.389       .  A
C1643      C1648   1.402       .  A
C1643      C1943   1.459       .  S
C1644      C1645   1.413       .  A
C1644      H1663   1.083       .  S
C1645      C1646   1.449       .  A
C1646      C1647   1.430       .  A
C1646      C1653   1.415       .  A
C1647      C1648   1.426       .  A
C1648      C1649   1.400       .  A
C1649      H1659   1.083   1_655  S
C1650      C1651   1.402       .  A
C1650      H1660   1.082       .  S
C1651      C1652   1.423       .  A
C1651      C1658   1.400       .  A
C1652      C1655   1.431       .  A
C1653      H1661   1.081       .  S
C1654      C1655   1.414       .  A
C1654      H1662   1.082       .  S
C1655      C1656   1.450       .  A
C1656      C1657   1.410       .  A
C1657      C1658   1.386       .  A
C1657      H1664   1.084       .  S
C1658      C1942   1.449       .  S
C1665      C1671   1.529       .  S
C1665      C1669   1.527       .  S
C1665      C1955   1.504       .  S
C1666      H1673   1.085       .  S
C1666      C1667   1.373       .  D
C1668      C1670   1.548       .  S
C1668      H1674   1.109       .  S
C1669      H1675   1.082       .  S
C1670      C1952   1.485       .  S
C1671      H1676   1.087       .  S
C1671      C1672   1.363       .  D
C1677      C1681   1.536       .  S
C1677      C1928   1.510       .  S
C1678      H1685   1.086       .  S
C1679      C1907   1.486   1_455  S
C1680      C1684   1.550       .  S
C1680      C1682   1.541   1_565  S
C1680      H1686   1.111       .  S
C1681      H1687   1.086       .  S
C1682      C1912   1.492       .  S
C1683      H1688   1.082       .  S
C1683      C1684   1.369   1_545  D
C1684      C1923   1.494       .  S
N1689      N1690   1.322       .  A
N1689      C1693   1.360       .  A
N1689     Cu1697   2.105   1_545  S
N1690      C1691   1.345       .  A
N1690     Cu1696   2.125       .  S
C1691      C1692   1.401       .  A
C1691      H1694   1.082       .  S
C1692      C1693   1.397       .  A
C1693      H1695   1.082   1_545  S
Cu1696     N1699   2.125       .  S
Cu1697     N1707   2.109       .  S
Cu1698     N1700   2.100   1_565  S
Cu1698     N1706   2.102       .  S
N1699      N1700   1.321       .  A
N1699      C1703   1.345       .  A
N1700      C1701   1.359       .  A
C1701      C1702   1.396       .  A
C1701      H1704   1.082   1_545  S
C1702      C1703   1.402       .  A
C1703      H1705   1.082       .  S
N1706      N1707   1.326       .  A
N1706      C1710   1.348       .  A
N1707      C1708   1.350       .  A
C1708      C1709   1.393       .  A
C1708      H1711   1.081       .  S
C1709      C1710   1.391       .  A
C1709      C1898   1.501       .  S
C1710      H1712   1.081       .  S
N1713      N1714   1.319   1_565  A
N1713      C1717   1.349       .  A
N1713     Cu1721   2.090       .  S
N1714      C1715   1.343       .  A
N1714     Cu1720   2.054       .  S
C1715      C1716   1.385       .  A
C1715      H1718   1.082       .  S
C1716      C1717   1.388   1_545  A
C1716      C1908   1.483   1_545  S
C1717      H1719   1.081       .  S
Cu1720     N1723   2.053       .  S
Cu1721     N1731   2.093       .  S
Cu1722     N1724   2.105   1_565  S
Cu1722     N1730   2.108       .  S
N1723      N1724   1.322       .  A
N1723      C1727   1.338       .  A
N1724      C1725   1.355       .  A
C1725      C1726   1.393       .  A
C1725      H1728   1.082   1_545  S
C1726      C1727   1.374       .  A
C1726      C1911   1.476       .  S
C1727      H1729   1.082       .  S
N1730      N1731   1.324       .  A
N1730      C1734   1.350       .  A
N1731      C1732   1.347       .  A
C1732      C1733   1.390       .  A
C1732      H1735   1.081       .  S
C1733      C1734   1.394       .  A
C1733      C1901   1.500       .  S
C1734      H1736   1.081       .  S
N1737      N1738   1.322       .  A
N1737      C1741   1.351       .  A
N1737     Cu1745   2.096       .  S
N1738      C1739   1.342       .  A
N1738     Cu1744   2.050       .  S
C1739      C1740   1.375       .  A
C1739      H1742   1.082       .  S
C1740      C1741   1.388       .  A
C1740      C1893   1.443       .  S
C1741      H1743   1.082       .  S
Cu1744     N1747   2.050       .  S
Cu1745     N1755   2.098       .  S
Cu1746     N1748   2.085       .  S
Cu1746     N1754   2.087       .  S
N1747      N1748   1.322       .  A
N1747      C1751   1.341       .  A
N1748      C1749   1.349       .  A
C1749      C1750   1.385       .  A
C1749      H1752   1.082       .  S
C1750      C1751   1.373       .  A
C1750      C1895   1.437       .  S
C1751      H1753   1.082       .  S
N1754      N1755   1.325       .  A
N1754      C1758   1.348       .  A
N1755      C1756   1.349       .  A
C1756      C1757   1.384       .  A
C1756      H1759   1.082       .  S
C1757      C1758   1.383       .  A
C1757      C1892   1.448       .  S
C1758      H1760   1.082       .  S
N1761      N1762   1.322       .  A
N1761      C1765   1.350       .  A
N1761     Cu1769   2.089       .  S
N1762      C1763   1.342       .  A
N1762     Cu1768   2.050       .  S
C1763      C1764   1.374       .  A
C1763      H1766   1.082       .  S
C1764      C1765   1.386       .  A
C1764      C1889   1.439       .  S
C1765      H1767   1.082       .  S
Cu1768     N1771   2.048       .  S
Cu1769     N1779   2.090       .  S
Cu1770     N1772   2.089       .  S
Cu1770     N1778   2.090       .  S
N1771      N1772   1.322       .  A
N1771      C1775   1.341       .  A
N1772      C1773   1.350       .  A
C1773      C1774   1.385       .  A
C1773      H1776   1.082       .  S
C1774      C1775   1.373       .  A
C1774      C1887   1.437       .  S
C1775      H1777   1.082       .  S
N1778      N1779   1.324       .  A
N1778      C1782   1.349       .  A
N1779      C1780   1.348       .  A
C1780      C1781   1.383       .  A
C1780      H1783   1.082       .  S
C1781      C1782   1.384       .  A
C1781      C1891   1.448       .  S
C1782      H1784   1.082       .  S
N1785      N1786   1.321       .  A
N1785      C1789   1.350   1_545  A
N1785     Cu1793   2.086   1_545  S
N1786      C1787   1.340       .  A
N1786     Cu1792   2.057       .  S
C1787      C1788   1.378       .  A
C1787      H1790   1.083       .  S
C1788      C1789   1.390   1_545  A
C1788      C1916   1.475       .  S
C1789      H1791   1.082       .  S
Cu1792     N1795   2.057       .  S
Cu1793     N1803   2.088       .  S
Cu1794     N1796   2.093       .  S
Cu1794     N1802   2.095       .  S
N1795      N1796   1.321   1_545  A
N1795      C1799   1.341       .  A
N1796      C1797   1.350       .  A
C1797      C1798   1.389   1_565  A
C1797      H1800   1.082       .  S
C1798      C1799   1.383       .  A
C1798      C1920   1.483       .  S
C1799      H1801   1.081       .  S
N1802      N1803   1.324       .  A
N1802      C1806   1.348       .  A
N1803      C1804   1.345       .  A
C1804      C1805   1.389       .  A
C1804      H1807   1.081       .  S
C1805      C1806   1.392       .  A
C1805      C1878   1.495       .  S
C1806      H1808   1.081       .  S
N1809      N1810   1.321       .  A
N1809      C1813   1.356       .  A
N1809     Cu1817   2.086       .  S
N1810      C1811   1.347       .  A
N1810     Cu1816   2.130       .  S
C1811      C1812   1.402       .  A
C1811      H1814   1.082       .  S
C1812      C1813   1.393       .  A
C1812      C1835   1.511       .  S
C1813      H1815   1.082       .  S
Cu1816     N1819   2.130       .  S
Cu1817     N1827   2.088       .  S
Cu1818     N1820   2.097       .  S
Cu1818     N1826   2.099       .  S
N1819      N1820   1.322       .  A
N1819      C1823   1.346       .  A
N1820      C1821   1.358       .  A
C1821      C1822   1.394       .  A
C1821      H1824   1.082       .  S
C1822      C1823   1.400       .  A
C1822      C1846   1.509       .  S
C1823      H1825   1.082       .  S
N1826      N1827   1.325       .  A
N1826      C1830   1.348       .  A
N1827      C1828   1.346       .  A
C1828      C1829   1.389       .  A
C1828      H1831   1.081       .  S
C1829      C1830   1.391       .  A
C1829      C1881   1.495       .  S
C1830      H1832   1.081       .  S
C1833      C1834   1.387       .  A
C1833      C1838   1.401       .  A
C1833      C1890   1.451       .  S
C1834      H1853   1.083       .  S
C1835      C1836   1.445       .  A
C1836      C1843   1.414       .  A
C1837      C1838   1.423       .  A
C1838      C1839   1.401       .  A
C1839      H1849   1.083       .  S
C1840      C1841   1.402       .  A
C1840      H1850   1.082       .  S
C1841      C1842   1.422       .  A
C1841      C1848   1.399       .  A
C1843      H1851   1.082       .  S
C1844      C1845   1.413   1_455  A
C1844      H1852   1.082   1_455  S
C1845      C1846   1.445       .  A
C1847      C1848   1.387       .  A
C1847      H1854   1.084       .  S
C1848      C1888   1.449       .  S
C1855      C1856   1.386       .  A
C1855      C1860   1.399       .  A
C1855      C1896   1.449       .  S
C1856      C1857   1.411       .  A
C1856      H1875   1.083       .  S
C1857      C1858   1.449       .  A
C1858      C1859   1.431       .  A
C1858      C1865   1.413       .  A
C1859      C1860   1.422       .  A
C1860      C1861   1.401       .  A
C1861      H1871   1.083       .  S
C1862      C1863   1.401       .  A
C1862      H1872   1.083       .  S
C1863      C1864   1.423       .  A
C1863      C1870   1.401       .  A
C1864      C1867   1.429       .  A
C1865      H1873   1.082       .  S
C1866      C1867   1.414       .  A
C1866      H1874   1.082       .  S
C1867      C1868   1.447       .  A
C1868      C1869   1.413       .  A
C1869      C1870   1.390       .  A
C1869      H1876   1.083       .  S
C1870      C1894   1.455       .  S
C1877      C1878   1.407       .  A
C1877      C1882   1.402       .  A
C1877      H1883   1.081       .  S
C1879      C1880   1.404       .  A
C1879      H1884   1.081       .  S
C1880      H1885   1.081       .  S
C1881      C1882   1.408       .  A
C1882      H1886   1.081       .  S
C1887      C1888   1.206       .  T
C1889      C1890   1.208       .  T
C1891      C1892   1.213       .  T
C1893      C1894   1.210       .  T
C1895      C1896   1.206       .  T
C1897      C1898   1.408       .  A
C1897      C1902   1.404       .  A
C1897      H1903   1.081       .  S
C1898      C1899   1.409       .  A
C1899      C1900   1.404       .  A
C1899      H1904   1.081       .  S
C1900      C1901   1.407       .  A
C1900      H1905   1.081       .  S
C1901      C1902   1.409       .  A
C1902      H1906   1.081       .  S
C1907      H1909   1.085       .  S
C1907      C1908   1.347   1_545  D
C1908      H1910   1.084       .  S
C1911      H1913   1.085       .  S
C1911      C1912   1.344       .  D
C1912      H1914   1.086   1_545  S
C1915      H1917   1.086   1_545  S
C1915      C1916   1.344       .  D
C1919      H1921   1.086       .  S
C1919      C1920   1.347       .  D
C1923      C1924   1.352       .  D
C1924      H1926   1.081       .  S
C1927      C1928   1.345       .  D
C1928      H1930   1.086       .  S
C1931      C1936   1.402       .  A
C1931      H1937   1.081       .  S
C1932      C1933   1.406       .  A
C1933      C1934   1.400       .  A
C1933      H1938   1.082       .  S
C1934      C1935   1.408       .  A
C1934      H1939   1.081       .  S
C1936      H1940   1.081       .  S
C1941      C1942   1.206       .  T
C1943      C1944   1.212       .  T
C1945      C1946   1.208       .  T
C1947      C1948   1.206       .  T
C1949      C1950   1.214       .  T
C1951      H1953   1.084       .  S
C1951      C1952   1.350       .  D
C1955      C1956   1.344       .  D
C1956      H1958   1.087       .  S
C1959      C1964   1.402       .  A
C1959      H1965   1.081       .  S
C1960      C1961   1.405       .  A
C1961      C1962   1.400       .  A
C1961      H1966   1.082       .  S
C1962      C1963   1.408       .  A
C1962      H1967   1.081       .  S
C1964      H1968   1.081       .  S
