geometry optimzed in LAMMPS
_audit_creation_date              2020-12-01 
_audit_creation_method            'lammps2cif' 
_symmetry_space_group_name_H-M    'P1' 
_symmetry_Int_Tables_number       1 
_symmetry_cell_setting            triclinic 
loop_ 
_symmetry_equiv_pos_as_xyz 
  x,y,z 
_cell_length_a                    27.20949352 
_cell_length_b                    44.45618169593291 
_cell_length_c                    37.82703187006856 
_cell_angle_alpha                 90.1111901612521 
_cell_angle_beta                  104.42827496158992 
_cell_angle_gamma                 90.77583879903045 
loop_ 
_atom_site_label 
_atom_site_type_symbol 
_atom_site_fract_x 
_atom_site_fract_y 
_atom_site_fract_z 
_atom_site_charge 
C1          C  0.08365943  0.87146695  0.15317322     0.86300
C2          C  0.04654263  0.86467934  0.17670588    -0.53900
C3          C  0.05705153  0.83946567  0.19768495     0.09200
C4          C  0.10550496  0.82358470  0.19374863     0.20200
C5          C  0.13589575  0.87320564  0.18097342    -0.54700
C6          C  0.14701199  0.84804967  0.20186667     0.09300
C7          C  0.08562080  0.84239386  0.13159647    -0.54200
C8          C  0.09724048  0.81735565  0.15268253     0.09900
H9          H  0.01503545  0.87926852  0.17722042     0.14400
H10         H  0.11592855  0.80343221  0.21099640     0.00200
H11         H  0.16281607  0.89174503  0.18413717     0.14700
H12         H  0.07942939  0.84188893  0.10209581     0.14500
C13         C  0.16666825  0.64950739  0.10194100     0.86300
C14         C  0.16020649  0.67904897  0.12117536    -0.53900
C15         C  0.14482798  0.70261699  0.09808319     0.09200
C16         C  0.13762603  0.69457008  0.05750335     0.20200
C17         C  0.11550405  0.64414336  0.07390062    -0.54700
C18         C  0.10007993  0.66793767  0.05134267     0.09300
C19         C  0.20317355  0.65742236  0.07801954    -0.54200
C20         C  0.18837027  0.68097944  0.05499363     0.09900
H21         H  0.16647920  0.68097177  0.15060301     0.14400
H22         H  0.12456481  0.71333968  0.03831326     0.00200
H23         H  0.09259495  0.62379391  0.07266651     0.14700
H24         H  0.23570484  0.64422462  0.07643376     0.14500
C25         C  0.41677600  0.86199356  0.34900959     0.86300
C26         C  0.45236374  0.85487676  0.32441614    -0.53900
C27         C  0.43683400  0.83112705  0.30137415     0.09200
C28         C  0.38680266  0.81611918  0.30508306     0.20200
C29         C  0.36510776  0.86603663  0.32175593    -0.54700
C30         C  0.34778202  0.84178472  0.29938633     0.09300
C31         C  0.41190201  0.83241040  0.36860821    -0.54200
C32         C  0.39595815  0.80842712  0.34589720     0.09900
H33         H  0.48519246  0.86825315  0.32269461     0.14400
H34         H  0.37603720  0.79609958  0.28740812     0.00200
H35         H  0.34415360  0.88672096  0.32079196     0.14700
H36         H  0.41888608  0.83084590  0.39809586     0.14500
C37         C  0.33142661  0.64136822  0.40641028     0.86300
C38         C  0.33799873  0.67006508  0.38543956    -0.53900
C39         C  0.35113454  0.69505801  0.40678326     0.09200
C40         C  0.35662171  0.68928178  0.44766076     0.20200
C41         C  0.38188850  0.63887773  0.43580562    -0.54700
C42         C  0.39650162  0.66414801  0.45673157     0.09300
C43         C  0.29300245  0.64935999  0.42820563    -0.54200
C44         C  0.30537668  0.67446139  0.44967369     0.09900
H45         H  0.33404213  0.67035886  0.35614053     0.14400
H46         H  0.36615143  0.71002837  0.46429103     0.00200
H47         H  0.40543781  0.61927785  0.43992167     0.14700
H48         H  0.25957263  0.63554803  0.42758325     0.14500
C49         C  0.07218915  0.14686452  0.15075324     0.86300
C50         C  0.07761826  0.17667244  0.13156287    -0.53900
C51         C  0.09470878  0.20038989  0.15462645     0.09200
C52         C  0.10376917  0.19221965  0.19532391     0.20200
C53         C  0.12419080  0.14217316  0.17736770    -0.54700
C54         C  0.14147568  0.16600039  0.20017461     0.09300
C55         C  0.03730004  0.15420312  0.17574345    -0.54200
C56         C  0.05289982  0.17811490  0.19847161     0.09900
H57         H  0.07021124  0.17852011  0.10208525     0.14400
H58         H  0.11671933  0.21141966  0.21430380     0.00200
H59         H  0.14608559  0.12191616  0.17744922     0.14700
H60         H  0.00389133  0.14141057  0.17724977     0.14500
C61         C  0.16576324  0.36642803  0.09351081     0.86300
C62         C  0.20198932  0.35764008  0.07000298    -0.53900
C63         C  0.18699228  0.33292085  0.04854469     0.09200
C64         C  0.13616355  0.31888600  0.05224116     0.20200
C65         C  0.11412195  0.36969427  0.06576805    -0.54700
C66         C  0.09763707  0.34471880  0.04460696     0.09300
C67         C  0.16025680  0.33773805  0.11479779    -0.54200
C68         C  0.14404532  0.31296463  0.09347485     0.09900
H69         H  0.23569602  0.37009825  0.06833920     0.14400
H70         H  0.12444685  0.29847685  0.03519417     0.00200
H71         H  0.09173169  0.38992063  0.06395991     0.14700
H72         H  0.16641743  0.33745756  0.14429468     0.14500
C73         C  0.40857969  0.14361610  0.34527389     0.86300
C74         C  0.40501810  0.17282037  0.36631759    -0.53900
C75         C  0.39108774  0.19743127  0.34459905     0.09200
C76         C  0.38243586  0.19062769  0.30358039     0.20200
C77         C  0.35669452  0.14031589  0.31775159    -0.54700
C78         C  0.34289765  0.16492154  0.29634419     0.09300
C79         C  0.44552145  0.15180119  0.32171957    -0.54200
C80         C  0.43224068  0.17640700  0.30029714     0.09900
H81         H  0.41085694  0.17348611  0.39575789     0.14400
H82         H  0.37132754  0.21037779  0.28557907     0.00200
H83         H  0.33217747  0.12060858  0.31611483     0.14700
H84         H  0.47916741  0.13962012  0.32069145     0.14500
C85         C  0.33245746  0.36667197  0.39954267     0.86300
C86         C  0.29414414  0.35979521  0.42223230    -0.53900
C87         C  0.30491362  0.33490511  0.44382706     0.09200
C88         C  0.35426869  0.31944237  0.44150864     0.20200
C89         C  0.38376707  0.36911689  0.42841526    -0.54700
C90         C  0.39491702  0.34441682  0.45003224     0.09300
C91         C  0.33610298  0.33737502  0.37889822    -0.54200
C92         C  0.34751599  0.31264302  0.40063245     0.09900
H93         H  0.26220810  0.37417166  0.42219834     0.14400
H94         H  0.36361548  0.29949609  0.45943581     0.00200
H95         H  0.41013959  0.38794545  0.43201088     0.14700
H96         H  0.33226208  0.33672685  0.34963693     0.14500
O97         O  0.30627756  0.53563262  0.28303298    -0.74600
O98         O  0.26789330  0.47724922  0.20603873    -0.74600
O99         O  0.26868538  0.53832309  0.20998948    -0.74700
O100        O  0.30604137  0.47509955  0.27930860    -0.74700
O101        O  0.22730115  0.47359110  0.28683525    -0.74700
O102        O  0.18993852  0.53697682  0.21712299    -0.74700
O103        O  0.18942575  0.47587974  0.21376391    -0.74600
O104        O  0.22713726  0.53472174  0.28989764    -0.74700
Ni105      Ni  0.28998357  0.50659769  0.24422793     1.25400
Ni106      Ni  0.20564068  0.50520307  0.25214099     1.25400
C107        C  0.27278538  0.54491159  0.29887714     0.87600
C108        C  0.22241671  0.46657910  0.19748483     0.87500
C109        C  0.22355884  0.54862126  0.20263526     0.87500
C110        C  0.27301082  0.46410204  0.29473260     0.87700
O111        O  0.04646804  0.03905716  0.02897473    -0.74600
O112        O  0.01279108  0.97456273  0.46013412    -0.74600
O113        O  0.00802350  0.03518682  0.45630161    -0.74700
O114        O  0.05108194  0.97871432  0.03311395    -0.74700
O115        O  0.47211294  0.97590404  0.04012030    -0.74700
O116        O  0.42980673  0.03393610  0.46455937    -0.74700
O117        O  0.43397515  0.97290695  0.46710457    -0.74600
O118        O  0.46850054  0.03672499  0.03759227    -0.74700
Ni119      Ni  0.03229960  0.00692644  0.49429040     1.25400
Ni120      Ni  0.44823098  0.00480269  0.00261804     1.25400
C121        C  0.01320646  0.04848677  0.04487509     0.87600
C122        C  0.46806750  0.96293791  0.45221257     0.87500
C123        C  0.46217396  0.04431586  0.44809142     0.87500
C124        C  0.01857954  0.96790936  0.04912718     0.87700
C125        C  0.28805051  0.44013351  0.32203407    -0.05700
C126        C  0.25426083  0.41641965  0.32347971    -0.33100
C127        C  0.26846387  0.39289856  0.34837498     0.36200
C128        C  0.31698113  0.39306054  0.37327294    -0.06000
C129        C  0.35052807  0.41720025  0.37157458    -0.33000
C130        C  0.33645198  0.44038910  0.34632570     0.36100
H131        H  0.21709934  0.41566762  0.30454887     0.16400
O132        O  0.23521516  0.36921541  0.34730671    -0.60500
H133        H  0.38844092  0.41841079  0.38887294     0.16500
O134        O  0.37051493  0.46329835  0.34569581    -0.60600
H135        H  0.36466616  0.47837776  0.36351286     0.43500
H136        H  0.20804925  0.37704605  0.35793966     0.43400
C137        C  0.42149121  0.11632111  0.37037141    -0.05700
C138        C  0.46462097  0.09869867  0.37159410    -0.33100
C139        C  0.47754800  0.07500477  0.39608302     0.36200
C140        C  0.44701608  0.06780862  0.41999204    -0.06000
C141        C  0.40284990  0.08434783  0.41804279    -0.33000
C142        C  0.38995772  0.10826420  0.39358077     0.36100
H143        H  0.48965613  0.10265919  0.35413300     0.16400
O144        O  0.01997533  0.05872135  0.39586259    -0.60500
H145        H  0.37871113  0.07927340  0.43617410     0.16500
O146        O  0.34725301  0.12437665  0.39348555    -0.60600
H147        H  0.31841810  0.11181481  0.37965544     0.43500
H148        H  0.04894459  0.07086447  0.41035104     0.43400
C149        C  0.38108168  0.22718895  0.35895074    -0.05700
C150        C  0.33978506  0.24392181  0.33949361    -0.33100
C151        C  0.32776070  0.27141801  0.35295854     0.36200
C152        C  0.35751757  0.28284552  0.38637102    -0.06000
C153        C  0.39868420  0.26606144  0.40588067    -0.33000
C154        C  0.41115819  0.23877672  0.39217876     0.36100
H155        H  0.31581055  0.23540791  0.31409364     0.16400
O156        O  0.28613644  0.28654605  0.33358202    -0.60500
H157        H  0.42214845  0.27435223  0.43152809     0.16500
O158        O  0.45347000  0.22403983  0.41119166    -0.60600
H159        H  0.48031081  0.22906254  0.39850190     0.43500
H160        H  0.25761366  0.27947439  0.34356987     0.43400
C161        C  0.18027601  0.39390747  0.11880214    -0.05700
C162        C  0.22601351  0.41033600  0.12211030    -0.33100
C163        C  0.23960863  0.43434512  0.14675189     0.36200
C164        C  0.20772901  0.44260533  0.16921976    -0.06000
C165        C  0.16163753  0.42682576  0.16551327    -0.33000
C166        C  0.14783482  0.40289820  0.14075827     0.36100
H167        H  0.25266253  0.40489608  0.10641291     0.16400
O168        O  0.28485587  0.44914667  0.14899239    -0.60500
H169        H  0.13635316  0.43255539  0.18246742     0.16500
O170        O  0.10323113  0.38756461  0.13929251    -0.60600
H171        H  0.07601289  0.40077346  0.12557872     0.43500
H172        H  0.27700518  0.46507410  0.13019745     0.43400
C173        C  0.44460370  0.34123327  0.47615996    -0.05700
C174        C  0.48336442  0.32682756  0.46482418    -0.33100
C175        C  0.03301926  0.32673247  0.48698799     0.36200
C176        C  0.04472896  0.34206100  0.02089657    -0.06000
C177        C  0.00474265  0.35536039  0.03269299    -0.33000
C178        C  0.45503740  0.35489432  0.01066679     0.36100
H179        H  0.47558586  0.31655091  0.43798384     0.16400
O180        O  0.06953004  0.31183362  0.47495161    -0.60500
H181        H  0.01191509  0.36623534  0.05916533     0.16500
O182        O  0.41723805  0.36878201  0.02243962    -0.60600
H183        H  0.41000925  0.35544946  0.04159894     0.43500
H184        H  0.06867101  0.32009671  0.45043960     0.43400
C185        C  0.27385040  0.32611165  0.46939077    -0.05700
C186        C  0.29743911  0.32128181  0.00633585    -0.33100
C187        C  0.26870469  0.32026967  0.03239212     0.36200
C188        C  0.21565164  0.32409839  0.02156622    -0.06000
C189        C  0.19205170  0.32610815  0.48435139    -0.33000
C190        C  0.22050748  0.32668150  0.45823318     0.36100
H191        H  0.33840460  0.32044592  0.01537156     0.16400
O192        O  0.29323993  0.31816937  0.06864786    -0.60500
H193        H  0.15217681  0.33035179  0.47561153     0.16500
O194        O  0.19606732  0.32870783  0.42189124    -0.60600
H195        H  0.18051685  0.34888132  0.41876347     0.44700
H196        H  0.28794617  0.29701575  0.07533089     0.43400
C197        C  0.05597785  0.12085618  0.12355152    -0.05700
C198        C  0.00906195  0.10547323  0.11903956    -0.33100
C199        C  0.99465634  0.08209341  0.09370312     0.36200
C200        C  0.02706627  0.07330875  0.07189736    -0.06000
C201        C  0.07367798  0.08860588  0.07601329    -0.33000
C202        C  0.08797078  0.11218999  0.10114721     0.36100
H203        H  0.98205380  0.11124544  0.13429857     0.16400
O204        O  0.44901911  0.06764269  0.09117629    -0.60500
H205        H  0.09931607  0.08248090  0.05948446     0.16500
O206        O  0.13387414  0.12643354  0.10396470    -0.60600
H207        H  0.12827792  0.14042403  0.08300948     0.43500
H208        H  0.42340176  0.08031032  0.07479897     0.43400
C209        C  0.19380001  0.16733430  0.22428522    -0.05700
C210        C  0.20203306  0.17749208  0.26045632    -0.33100
C211        C  0.25070702  0.17716258  0.28406655     0.36200
C212        C  0.29215154  0.16737499  0.27127847    -0.06000
C213        C  0.28457468  0.15839039  0.23487913    -0.33000
C214        C  0.23591434  0.15840884  0.21134823     0.36100
H215        H  0.17058707  0.18486145  0.27079749     0.16400
O216        O  0.25735583  0.18621766  0.31965796    -0.60500
H217        H  0.31640430  0.15098495  0.22482502     0.16500
O218        O  0.23005811  0.14980560  0.17568316    -0.60600
H219        H  0.23043137  0.16879799  0.16206467     0.43500
H220        H  0.25611672  0.16745937  0.33357878     0.43400
C221        C  0.46303992  0.18644631  0.27519009    -0.05700
C222        C  0.43991870  0.18919538  0.23795630    -0.33100
C223        C  0.46948020  0.18955085  0.21245432     0.36200
C224        C  0.02286446  0.18744370  0.22431069    -0.06000
C225        C  0.04599603  0.18856304  0.26173112    -0.33000
C226        C  0.01648405  0.18814988  0.28717474     0.36100
H227        H  0.39891915  0.18846853  0.22838385     0.16400
O228        O  0.44598510  0.19065245  0.17586930    -0.60500
H229        H  0.08674949  0.18720438  0.27134193     0.16500
O230        O  0.04026574  0.18702596  0.32366312    -0.60600
H231        H  0.03651544  0.20741162  0.33329132     0.43500
H232        H  0.42722141  0.17125418  0.16999201     0.43400
C233        C  0.10624916  0.23024942  0.14076579    -0.05700
C234        C  0.07362269  0.24173643  0.10902762    -0.33100
C235        C  0.08547105  0.26847962  0.09336520     0.36200
C236        C  0.13097753  0.28420103  0.10914895    -0.06000
C237        C  0.16300354  0.27316203  0.14142631    -0.33000
C238        C  0.15109211  0.24641429  0.15717085     0.36100
H239        H  0.03852286  0.22996082  0.09631880     0.16400
O240        O  0.05163626  0.27930221  0.06309551    -0.60500
H241        H  0.19799217  0.28503625  0.15415686     0.16500
O242        O  0.18443487  0.23590491  0.18788981    -0.60600
H243        H  0.20915344  0.22383895  0.17883364     0.43500
H244        H  0.02850011  0.29225756  0.07271909     0.43400
C245        C  0.31481519  0.61453185  0.38042530    -0.05700
C246        C  0.34460487  0.58852511  0.38190355    -0.33100
C247        C  0.33119117  0.56579765  0.35554431     0.36200
C248        C  0.28670756  0.56807875  0.32752379    -0.06000
C249        C  0.25563444  0.59305383  0.32648967    -0.33000
C250        C  0.26934930  0.61615821  0.35241681     0.36100
H251        H  0.37903008  0.58520485  0.40267519     0.16400
O252        O  0.36115815  0.54092651  0.35804538    -0.60500
H253        H  0.22127425  0.59510296  0.30482516     0.16500
O254        O  0.23911393  0.64097087  0.34917835    -0.60600
H255        H  0.21049913  0.63490974  0.35961843     0.43500
H256        H  0.38957526  0.54711270  0.34744554     0.43400
C257        C  0.43104900  0.88843216  0.37581427    -0.05700
C258        C  0.47838565  0.90343114  0.38198137    -0.33100
C259        C  0.49082781  0.92751172  0.40654471     0.36200
C260        C  0.45581602  0.93748061  0.42581415    -0.06000
C261        C  0.40888300  0.92234044  0.42026588    -0.33000
C262        C  0.39671476  0.89791468  0.39611056     0.36100
H263        H  0.50715671  0.89656189  0.36873129     0.16400
O264        O  0.03740398  0.94128611  0.41104041    -0.60500
H265        H  0.38144184  0.92918811  0.43499788     0.16500
O266        O  0.35053215  0.88370962  0.39208800    -0.60600
H267        H  0.35534245  0.86934308  0.41265266     0.43500
H268        H  0.06107071  0.92902379  0.42943146     0.43400
C269        C  0.38513112  0.77860790  0.36007541    -0.05700
C270        C  0.41904787  0.76700560  0.39112115    -0.33100
C271        C  0.40809612  0.74010564  0.40692577     0.36200
C272        C  0.36270242  0.72421320  0.39156293    -0.06000
C273        C  0.32905218  0.73554996  0.36026575    -0.33000
C274        C  0.33990474  0.76252980  0.34449802     0.36100
H275        H  0.45434058  0.77884059  0.40317791     0.16400
O276        O  0.44319652  0.72877480  0.43619945    -0.60500
H277        H  0.29382810  0.72361874  0.34825826     0.16500
O278        O  0.30466577  0.77385678  0.31529840    -0.60600
H279        H  0.30476144  0.76014060  0.29459599     0.43500
H280        H  0.44181720  0.74190870  0.45713699     0.43400
C281        C  0.18232084  0.62366759  0.12893620    -0.05700
C282        C  0.23235071  0.61283965  0.13801870    -0.33100
C283        C  0.24631410  0.58874768  0.16189231     0.36200
C284        C  0.21019205  0.57460306  0.17759162    -0.06000
C285        C  0.16105557  0.58639312  0.17032460    -0.33000
C286        C  0.14741346  0.61098350  0.14705535     0.36100
H287        H  0.26200411  0.62330212  0.12781804     0.16400
O288        O  0.29566386  0.57937796  0.16959801    -0.60500
H289        H  0.13293873  0.57673912  0.18298472     0.16500
O290        O  0.09947438  0.62223830  0.14197152    -0.60600
H291        H  0.10219297  0.63758861  0.16143466     0.43500
H292        H  0.31395825  0.59204534  0.19049006     0.43400
C293        C  0.44947010  0.66746919  0.48067898    -0.05700
C294        C  0.48908273  0.65157326  0.47124112    -0.33100
C295        C  0.03816101  0.65168823  0.49392974     0.36200
C296        C  0.04945589  0.66892786  0.02593689    -0.06000
C297        C  0.01164931  0.68642012  0.03459482    -0.33000
C298        C  0.46194111  0.68585707  0.01232029     0.36100
H299        H  0.48238979  0.63876235  0.44610894     0.16400
O300        O  0.07512370  0.63520375  0.48432469    -0.60500
H301        H  0.02038144  0.69993890  0.05931633     0.16500
O302        O  0.42586886  0.70227922  0.02289650    -0.60600
H303        H  0.43426143  0.72363201  0.01914071     0.43500
H304        H  0.07034096  0.61440627  0.49244974     0.43400
C305        C  0.27386849  0.68405424  0.47470502    -0.05700
C306        C  0.29754145  0.69064795  0.01125016    -0.33100
C307        C  0.26927554  0.69273254  0.03740577     0.36200
C308        C  0.21625460  0.68847246  0.02709535    -0.06000
C309        C  0.19182079  0.68507521  0.49002691    -0.33000
C310        C  0.22020099  0.68287253  0.46384963     0.36100
H311        H  0.33826650  0.69169638  0.02029267     0.16400
O312        O  0.29389970  0.69758873  0.07335290    -0.60500
H313        H  0.15101783  0.68181493  0.48167691     0.16500
O314        O  0.19518870  0.67782014  0.42807559    -0.60600
H315        H  0.19370825  0.69776975  0.41621962     0.43500
H316        H  0.31144193  0.67854648  0.08184206     0.43400
C317        C  0.03457841  0.94513795  0.07755566    -0.05700
C318        C  0.00249968  0.92051740  0.07853023    -0.33100
C319        C  0.01823586  0.89709871  0.10306850     0.36200
C320        C  0.06681976  0.89810526  0.12782954    -0.06000
C321        C  0.09819681  0.92356566  0.12740517    -0.33000
C322        C  0.08239257  0.94683483  0.10250726     0.36100
H323        H  0.46566673  0.91886197  0.05927282     0.16400
O324        O  0.48652266  0.87260591  0.10167342    -0.60500
H325        H  0.13540826  0.92581744  0.14560447     0.16500
O326        O  0.11413389  0.97111526  0.10270023    -0.60600
H327        H  0.10491398  0.98592508  0.11954511     0.43500
H328        H  0.45934991  0.87937332  0.11299004     0.43400
C329        C  0.19630673  0.84416128  0.22815677    -0.05700
C330        C  0.23157925  0.82441138  0.22006279    -0.33100
C331        C  0.28057052  0.82238467  0.24311821     0.36200
C332        C  0.29486475  0.84056863  0.27499410    -0.06000
C333        C  0.25727398  0.85862263  0.28392186    -0.33000
C334        C  0.20904845  0.86102064  0.26045275     0.36100
H335        H  0.22160941  0.81116990  0.19513138     0.16400
O336        O  0.31430103  0.80369934  0.23297299    -0.60500
H337        H  0.26489985  0.87131150  0.30916035     0.16500
O338        O  0.17434281  0.87972619  0.26950172    -0.60600
H339        H  0.18107683  0.89978555  0.26011749     0.43500
H340        H  0.30121509  0.78295657  0.23484778     0.43400
C341        C  0.46348535  0.82466621  0.27257616    -0.05700
C342        C  0.01502436  0.81707367  0.28283864    -0.33100
C343        C  0.04572885  0.81986892  0.25818188     0.36200
C344        C  0.02472275  0.83013614  0.22242973    -0.06000
C345        C  0.47221284  0.83528631  0.21152008    -0.33000
C346        C  0.44179089  0.83309075  0.23633706     0.36100
H347        H  0.03237251  0.81117460  0.31091933     0.16400
O348        O  0.09674238  0.81484516  0.27034482    -0.60500
H349        H  0.45501174  0.84290582  0.18409348     0.16500
O350        O  0.39279377  0.84310873  0.22634883    -0.60600
H351        H  0.37612568  0.83205439  0.20361347     0.43500
H352        H  0.11158714  0.83406064  0.28179316     0.43400
C353        C  0.13183883  0.73218877  0.11109969    -0.05700
C354        C  0.10399164  0.73325748  0.13773971    -0.33100
C355        C  0.09167953  0.76078093  0.15108230     0.36200
C356        C  0.10713425  0.78786475  0.13766631    -0.06000
C357        C  0.13438999  0.78678806  0.11062667    -0.33000
C358        C  0.14648965  0.75924542  0.09717015     0.36100
H359        H  0.09117654  0.71262982  0.14801995     0.16400
O360        O  0.06249287  0.76098447  0.17590494    -0.60500
H361        H  0.14757849  0.80736723  0.10049781     0.16500
O362        O  0.17523179  0.75902000  0.07207538    -0.60600
H363        H  0.15245544  0.76613624  0.04896938     0.43500
H364        H  0.08411056  0.75248044  0.19865419     0.43400
C365        C  0.08365659  0.87146700  0.65317285     0.86300
C366        C  0.04654019  0.86467912  0.67670574    -0.53900
C367        C  0.05705015  0.83946573  0.69768521     0.09200
C368        C  0.10550367  0.82358499  0.69374866     0.20200
C369        C  0.13589328  0.87320601  0.68097275    -0.54700
C370        C  0.14701036  0.84805018  0.70186618     0.09300
C371        C  0.08561840  0.84239379  0.63159629    -0.54200
C372        C  0.09723876  0.81735568  0.65268254     0.09900
H373        H  0.01503245  0.87926790  0.67722012     0.14400
H374        H  0.11592771  0.80343268  0.71099673     0.00200
H375        H  0.16281358  0.89174535  0.68413585     0.14700
H376        H  0.07942668  0.84188872  0.60209561     0.14500
C377        C  0.16666551  0.64950688  0.60194075     0.86300
C378        C  0.16020394  0.67904851  0.62117509    -0.53900
C379        C  0.14482617  0.70261670  0.59808300     0.09200
C380        C  0.13762485  0.69456980  0.55750314     0.20200
C381        C  0.11550151  0.64414319  0.57390000    -0.54700
C382        C  0.10007818  0.66793764  0.55134206     0.09300
C383        C  0.20317132  0.65742155  0.57801959    -0.54200
C384        C  0.18836903  0.68097876  0.55499372     0.09900
H385        H  0.16647619  0.68097120  0.65060272     0.14400
H386        H  0.12456423  0.71333947  0.53831302     0.00200
H387        H  0.09259201  0.62379387  0.57266552     0.14700
H388        H  0.23570209  0.64422329  0.57643387     0.14500
C389        C  0.41677442  0.86199364  0.84901018     0.86300
C390        C  0.45236268  0.85487700  0.82441706    -0.53900
C391        C  0.43683343  0.83112736  0.80137488     0.09200
C392        C  0.38680183  0.81611937  0.80508331     0.20200
C393        C  0.36510655  0.86603676  0.82175614    -0.54700
C394        C  0.34778092  0.84178489  0.79938640     0.09300
C395        C  0.41190017  0.83241044  0.86860856    -0.54200
C396        C  0.39595696  0.80842717  0.84589744     0.09900
H397        H  0.48519136  0.86825356  0.82269582     0.14400
H398        H  0.37603678  0.79609982  0.78740825     0.00200
H399        H  0.34415269  0.88672120  0.82079201     0.14700
H400        H  0.41888397  0.83084586  0.89809619     0.14500
C401        C  0.33142811  0.64136801  0.90641157     0.86300
C402        C  0.33800123  0.67006459  0.88544067    -0.53900
C403        C  0.35113681  0.69505766  0.90678410     0.09200
C404        C  0.35662307  0.68928182  0.94766156     0.20200
C405        C  0.38188947  0.63887743  0.93580737    -0.54700
C406        C  0.39650258  0.66414785  0.95673309     0.09300
C407        C  0.29300347  0.64936026  0.92820626    -0.54200
C408        C  0.30537752  0.67446184  0.94967401     0.09900
H409        H  0.33404507  0.67035812  0.85614168     0.14400
H410        H  0.36615282  0.71002852  0.96429164     0.00200
H411        H  0.40543856  0.61927745  0.93992370     0.14700
H412        H  0.25957350  0.63554841  0.92758371     0.14500
C413        C  0.07218772  0.14686459  0.65075435     0.86300
C414        C  0.07761701  0.17667273  0.63156434    -0.53900
C415        C  0.09470790  0.20039001  0.65462821     0.09200
C416        C  0.10376842  0.19221934  0.69532555     0.20200
C417        C  0.12418937  0.14217297  0.67736865    -0.54700
C418        C  0.14147460  0.16600003  0.70017573     0.09300
C419        C  0.03729863  0.15420321  0.67574460    -0.54200
C420        C  0.05289917  0.17811460  0.69847327     0.09900
H421        H  0.07020978  0.17852064  0.60208674     0.14400
H422        H  0.11671872  0.21141912  0.71430577     0.00200
H423        H  0.14608394  0.12191592  0.67744987     0.14700
H424        H  0.00388902  0.14141126  0.67725026     0.14500
C425        C  0.16576244  0.36642859  0.59351224     0.86300
C426        C  0.20198819  0.35764045  0.57000431    -0.53900
C427        C  0.18699115  0.33292107  0.54854634     0.09200
C428        C  0.13616243  0.31888631  0.55224314     0.20200
C429        C  0.11412107  0.36969475  0.56576952    -0.54700
C430        C  0.09763589  0.34471915  0.54460875     0.09300
C431        C  0.16025597  0.33773881  0.61479958    -0.54200
C432        C  0.14404437  0.31296522  0.59347697     0.09900
H433        H  0.23569441  0.37009883  0.56833988     0.14400
H434        H  0.12444574  0.29847705  0.53519639     0.00200
H435        H  0.09173107  0.38992124  0.56396109     0.14700
H436        H  0.16641663  0.33745862  0.64429648     0.14500
C437        C  0.40857691  0.14361417  0.84527450     0.86300
C438        C  0.40501614  0.17281850  0.86631837    -0.53900
C439        C  0.39108693  0.19742954  0.84459987     0.09200
C440        C  0.38243532  0.19062608  0.80358126     0.20200
C441        C  0.35669198  0.14031457  0.81775197    -0.54700
C442        C  0.34289631  0.16492036  0.79634468     0.09300
C443        C  0.44551932  0.15179881  0.82172053    -0.54200
C444        C  0.43223983  0.17640484  0.80029831     0.09900
H445        H  0.41085488  0.17348429  0.89575867     0.14400
H446        H  0.37132780  0.21037635  0.78558009     0.00200
H447        H  0.33217418  0.12060756  0.81611496     0.14700
H448        H  0.47916485  0.13961732  0.82069247     0.14500
C449        C  0.33246044  0.36667118  0.89954192     0.86300
C450        C  0.29414641  0.35979438  0.92223096    -0.53900
C451        C  0.30491572  0.33490445  0.94382607     0.09200
C452        C  0.35427115  0.31944181  0.94150839     0.20200
C453        C  0.38376960  0.36911630  0.92841495    -0.54700
C454        C  0.39491919  0.34441637  0.95003221     0.09300
C455        C  0.33610681  0.33737414  0.87889787    -0.54200
C456        C  0.34751938  0.31264229  0.90063238     0.09900
H457        H  0.26221001  0.37417074  0.92219631     0.14400
H458        H  0.36361782  0.29949559  0.95943569     0.00200
H459        H  0.41014251  0.38794464  0.93201036     0.14700
H460        H  0.33226630  0.33672571  0.84963663     0.14500
O461        O  0.30627870  0.53563290  0.78303420    -0.74600
O462        O  0.26789406  0.47725016  0.70603924    -0.74600
O463        O  0.26868543  0.53832399  0.70999072    -0.74700
O464        O  0.30604311  0.47509986  0.77930898    -0.74700
O465        O  0.22730306  0.47359080  0.78683598    -0.74700
O466        O  0.18993890  0.53697727  0.71712485    -0.74700
O467        O  0.18942677  0.47588034  0.71376489    -0.74600
O468        O  0.22713869  0.53472142  0.78989945    -0.74700
Ni469      Ni  0.28998450  0.50659835  0.74422875     1.25400
Ni470      Ni  0.20564190  0.50520318  0.75214239     1.25400
C471        C  0.27278670  0.54491143  0.79887876     0.87600
C472        C  0.22241753  0.46657995  0.69748551     0.87500
C473        C  0.22355869  0.54862191  0.70263677     0.87500
C474        C  0.27301281  0.46410188  0.79473287     0.87700
O475        O  0.04646893  0.03905723  0.52897573    -0.74600
O476        O  0.01278966  0.97456184  0.96013462    -0.74600
O477        O  0.00801949  0.03518560  0.95630120    -0.74700
O478        O  0.05108028  0.97871420  0.53311404    -0.74700
O479        O  0.47211038  0.97590383  0.54011788    -0.74700
O480        O  0.42980433  0.03393489  0.96456104    -0.74700
O481        O  0.43397467  0.97290588  0.96710734    -0.74600
O482        O  0.46849977  0.03672491  0.53759097    -0.74700
Ni483      Ni  0.03229839  0.00692598  0.99429009     1.25400
Ni484      Ni  0.44823084  0.00480321  0.50261588     1.25400
C485        C  0.01320679  0.04848699  0.54487552     0.87600
C486        C  0.46806642  0.96293709  0.95221457     0.87500
C487        C  0.46217049  0.04431454  0.94809214     0.87500
C488        C  0.01857661  0.96790946  0.54912633     0.87700
C489        C  0.28805285  0.44013297  0.82203376    -0.05700
C490        C  0.25426485  0.41641771  0.82347725    -0.33100
C491        C  0.26846825  0.39289648  0.84837229     0.36200
C492        C  0.31698415  0.39305964  0.87327200    -0.06000
C493        C  0.35052933  0.41720080  0.87157580    -0.33000
C494        C  0.33645294  0.44038979  0.84632714     0.36100
H495        H  0.21710444  0.41566481  0.80454504     0.16400
O496        O  0.23522128  0.36921217  0.84730225    -0.60500
H497        H  0.38844087  0.41841267  0.88887602     0.16500
O498        O  0.37051403  0.46330053  0.84569933    -0.60600
H499        H  0.36466667  0.47837726  0.86351978     0.43500
H500        H  0.20805422  0.37704129  0.85793509     0.43400
C501        C  0.42148717  0.11631893  0.87037160    -0.05700
C502        C  0.46461589  0.09869580  0.87159360    -0.33100
C503        C  0.47754265  0.07500200  0.89608248     0.36200
C504        C  0.44701143  0.06780657  0.91999216    -0.06000
C505        C  0.40284554  0.08434600  0.91804314    -0.33000
C506        C  0.38995360  0.10826235  0.89358104     0.36100
H507        H  0.48965054  0.10265560  0.85413200     0.16400
O508        O  0.01996804  0.05871756  0.89586081    -0.60500
H509        H  0.37870710  0.07927188  0.93617479     0.16500
O510        O  0.34724924  0.12437513  0.89348588    -0.60600
H511        H  0.31841409  0.11181355  0.87965556     0.43500
H512        H  0.04893780  0.07086059  0.91034878     0.43400
C513        C  0.38108199  0.22718741  0.85895143    -0.05700
C514        C  0.33978532  0.24392037  0.83949461    -0.33100
C515        C  0.32776204  0.27141684  0.85295940     0.36200
C516        C  0.35752022  0.28284458  0.88637128    -0.06000
C517        C  0.39868704  0.26606048  0.90588060    -0.33000
C518        C  0.41115983  0.23877538  0.89217887     0.36100
H519        H  0.31581004  0.23540636  0.81409500     0.16400
O520        O  0.28613752  0.28654494  0.83358337    -0.60500
H521        H  0.42215220  0.27435150  0.93152760     0.16500
O522        O  0.45347174  0.22403828  0.91119125    -0.60600
H523        H  0.48031169  0.22906009  0.89850040     0.43500
H524        H  0.25761566  0.27947455  0.84357300     0.43400
C525        C  0.18027577  0.39390816  0.61880326    -0.05700
C526        C  0.22601452  0.41033563  0.62211231    -0.33100
C527        C  0.23961003  0.43434488  0.64675364     0.36200
C528        C  0.20772959  0.44260624  0.66922043    -0.06000
C529        C  0.16163709  0.42682761  0.66551319    -0.33000
C530        C  0.14783405  0.40289988  0.64075851     0.36100
H531        H  0.25266450  0.40489455  0.60641614     0.16400
O532        O  0.28485862  0.44914522  0.64899524    -0.60500
H533        H  0.13635213  0.43255804  0.68246659     0.16500
O534        O  0.10322953  0.38756706  0.63929230    -0.60600
H535        H  0.07601198  0.40077653  0.62557872     0.43500
H536        H  0.27701029  0.46507207  0.63019945     0.43400
C537        C  0.44460585  0.34123277  0.97615978    -0.05700
C538        C  0.48336656  0.32682748  0.96482358    -0.33100
C539        C  0.03302081  0.32673250  0.98698598     0.36200
C540        C  0.04472769  0.34206149  0.52089825    -0.06000
C541        C  0.00474158  0.35536176  0.53269410    -0.33000
C542        C  0.45503524  0.35489518  0.51066677     0.36100
H543        H  0.47558790  0.31655109  0.93798309     0.16400
O544        O  0.06953195  0.31183458  0.97494899    -0.60500
H545        H  0.01191409  0.36623715  0.55916618     0.16500
O546        O  0.41723596  0.36878331  0.52243922    -0.60600
H547        H  0.41000727  0.35545129  0.54159901     0.43500
H548        H  0.06867271  0.32009849  0.95043736     0.43400
C549        C  0.27385205  0.32611106  0.96938953    -0.05700
C550        C  0.29743786  0.32128293  0.50633711    -0.33100
C551        C  0.26870372  0.32027070  0.53239354     0.36200
C552        C  0.21565044  0.32409861  0.52156779    -0.06000
C553        C  0.19205323  0.32610842  0.98434983    -0.33000
C554        C  0.22050919  0.32668146  0.95823175     0.36100
H555        H  0.33840341  0.32044755  0.51537267     0.16400
O556        O  0.29323937  0.31817118  0.56864927    -0.60500
H557        H  0.15217857  0.33035268  0.97560989     0.16500
O558        O  0.19606930  0.32870799  0.92188978    -0.60600
H559        H  0.18051864  0.34888144  0.91876211     0.44700
H560        H  0.28794877  0.29701718  0.57533238     0.43400
C561        C  0.05597675  0.12085621  0.62355255    -0.05700
C562        C  0.00906241  0.10547175  0.61904197    -0.33100
C563        C  0.99465733  0.08209189  0.59370543     0.36200
C564        C  0.02706632  0.07330867  0.57189830    -0.06000
C565        C  0.07367689  0.08860689  0.57601340    -0.33000
C566        C  0.08796919  0.11219097  0.60114746     0.36100
H567        H  0.98205538  0.11124250  0.63430251     0.16400
O568        O  0.44901967  0.06763969  0.59117807    -0.60500
H569        H  0.09931443  0.08248281  0.55948378     0.16500
O570        O  0.13387178  0.12643531  0.60396446    -0.60600
H571        H  0.12827469  0.14042554  0.58300896     0.43500
H572        H  0.42340077  0.08030686  0.57480150     0.43400
C573        C  0.19379900  0.16733380  0.72428605    -0.05700
C574        C  0.20203242  0.17749213  0.76045695    -0.33100
C575        C  0.25070638  0.17716251  0.78406702     0.36200
C576        C  0.29215052  0.16737437  0.77127893    -0.06000
C577        C  0.28457339  0.15838931  0.73487975    -0.33000
C578        C  0.23591301  0.15840784  0.71134900     0.36100
H579        H  0.17058671  0.18486203  0.77079809     0.16400
O580        O  0.25735554  0.18621788  0.81965837    -0.60500
H581        H  0.31640280  0.15098342  0.72482569     0.16500
O582        O  0.23005648  0.14980426  0.67568401    -0.60600
H583        H  0.23042802  0.16879658  0.66206509     0.43500
H584        H  0.25611500  0.16745982  0.83357923     0.43400
C585        C  0.46304005  0.18644399  0.77519181    -0.05700
C586        C  0.43991871  0.18919600  0.73795839    -0.33100
C587        C  0.46947977  0.18955205  0.71245613     0.36200
C588        C  0.02286477  0.18744295  0.72431304    -0.06000
C589        C  0.04599596  0.18855859  0.76173364    -0.33000
C590        C  0.01648351  0.18814468  0.78717691     0.36100
H591        H  0.39891909  0.18847105  0.72838615     0.16400
O592        O  0.44598442  0.19065630  0.67587133    -0.60500
H593        H  0.08674914  0.18719760  0.77134451     0.16500
O594        O  0.04026464  0.18701763  0.82366521    -0.60600
H595        H  0.03651875  0.20740325  0.83329529     0.43500
H596        H  0.42722014  0.17125845  0.66999213     0.43400
C597        C  0.10624820  0.23024979  0.64076792    -0.05700
C598        C  0.07362216  0.24173668  0.60902949    -0.33100
C599        C  0.08547040  0.26847999  0.59336725     0.36200
C600        C  0.13097641  0.28420172  0.60915139    -0.06000
C601        C  0.16300177  0.27316302  0.64142924    -0.33000
C602        C  0.15109042  0.24641513  0.65717364     0.36100
H603        H  0.03852270  0.22996088  0.59632027     0.16400
O604        O  0.05163591  0.27930235  0.56309728    -0.60500
H605        H  0.19798992  0.28503752  0.65416024     0.16500
O606        O  0.18443255  0.23590613  0.68789315    -0.60600
H607        H  0.20915423  0.22384228  0.67883776     0.43500
H608        H  0.02849931  0.29225762  0.57272053     0.43400
C609        C  0.31481654  0.61453159  0.88042679    -0.05700
C610        C  0.34460525  0.58852435  0.88190591    -0.33100
C611        C  0.33119151  0.56579685  0.85554672     0.36200
C612        C  0.28670880  0.56807845  0.82752550    -0.06000
C613        C  0.25563648  0.59305397  0.82649063    -0.33000
C614        C  0.26935140  0.61615837  0.85241767     0.36100
H615        H  0.37902963  0.58520373  0.90267824     0.16400
O616        O  0.36115751  0.54092522  0.85804848    -0.60500
H617        H  0.22127697  0.59510344  0.80482557     0.16500
O618        O  0.23911694  0.64097149  0.84917844    -0.60600
H619        H  0.21050153  0.63491100  0.85961822     0.43500
H620        H  0.38957533  0.54711081  0.84744905     0.43400
C621        C  0.43104718  0.88843207  0.87581516    -0.05700
C622        C  0.47838464  0.90343022  0.88198353    -0.33100
C623        C  0.49082701  0.92751046  0.90654730     0.36200
C624        C  0.45581468  0.93747984  0.92581604    -0.06000
C625        C  0.40888085  0.92234040  0.92026662    -0.33000
C626        C  0.39671234  0.89791497  0.89611079     0.36100
H627        H  0.50715624  0.89656045  0.86873424     0.16400
O628        O  0.03740543  0.94128214  0.91104548    -0.60500
H629        H  0.38143922  0.92918847  0.93499803     0.16500
O630        O  0.35052895  0.88371060  0.89208712    -0.60600
H631        H  0.35533818  0.86934337  0.91265103     0.43500
H632        H  0.06106976  0.92901956  0.92943770     0.43400
C633        C  0.38513109  0.77860772  0.86007564    -0.05700
C634        C  0.41904805  0.76700590  0.89112165    -0.33100
C635        C  0.40809714  0.74010583  0.90692642     0.36200
C636        C  0.36270410  0.72421281  0.89156347    -0.06000
C637        C  0.32905377  0.73554904  0.86026600    -0.33000
C638        C  0.33990551  0.76252896  0.84449809     0.36100
H639        H  0.45434023  0.77884139  0.90317852     0.16400
O640        O  0.44319766  0.72877548  0.93620038    -0.60500
H641        H  0.29383019  0.72361735  0.84825842     0.16500
O642        O  0.30466646  0.77385537  0.81529811    -0.60600
H643        H  0.30476262  0.76013889  0.79459603     0.43500
H644        H  0.44181762  0.74190940  0.95713774     0.43400
C645        C  0.18231807  0.62366709  0.62893605    -0.05700
C646        C  0.23234885  0.61284056  0.63802013    -0.33100
C647        C  0.24631300  0.58874897  0.66189421     0.36200
C648        C  0.21019097  0.57460343  0.67759274    -0.06000
C649        C  0.16105342  0.58639214  0.67032422    -0.33000
C650        C  0.14741038  0.61098207  0.64705429     0.36100
H651        H  0.26200233  0.62330396  0.62782039     0.16400
O652        O  0.29566355  0.57938056  0.66960122    -0.60500
H653        H  0.13293641  0.57673739  0.68298363     0.16500
O654        O  0.09947023  0.62223555  0.64196909    -0.60600
H655        H  0.10218719  0.63758691  0.66143086     0.43500
H656        H  0.31395626  0.59204863  0.69049310     0.43400
C657        C  0.44947102  0.66746904  0.98068053    -0.05700
C658        C  0.48908356  0.65157287  0.97124289    -0.33100
C659        C  0.03816237  0.65168740  0.99393097     0.36200
C660        C  0.04945437  0.66892826  0.52593600    -0.06000
C661        C  0.01164785  0.68642057  0.53459395    -0.33000
C662        C  0.46194010  0.68585693  0.51231898     0.36100
H663        H  0.48239058  0.63876169  0.94611091     0.16400
O664        O  0.07512505  0.63520286  0.98432601    -0.60500
H665        H  0.02037990  0.69993910  0.55931566     0.16500
O666        O  0.42586781  0.70227895  0.52289533    -0.60600
H667        H  0.43426048  0.72363180  0.51913987     0.43500
H668        H  0.07034392  0.61440576  0.99245283     0.43400
C669        C  0.27386874  0.68405517  0.97470473    -0.05700
C670        C  0.29754154  0.69064531  0.51125083    -0.33100
C671        C  0.26927561  0.69272989  0.53740646     0.36200
C672        C  0.21625428  0.68847144  0.52709574    -0.06000
C673        C  0.19182111  0.68507484  0.99002674    -0.33000
C674        C  0.22020129  0.68287217  0.96384948     0.36100
H675        H  0.33826669  0.69169243  0.52029347     0.16400
O676        O  0.29390002  0.69758457  0.57335386    -0.60500
H677        H  0.15101837  0.68181344  0.98167701     0.16500
O678        O  0.19518919  0.67781860  0.92807567    -0.60600
H679        H  0.19369745  0.69776913  0.91622085     0.43500
H680        H  0.31144166  0.67854192  0.58184187     0.43400
C681        C  0.03457421  0.94513813  0.57755522    -0.05700
C682        C  0.00249682  0.92051659  0.57852829    -0.33100
C683        C  0.01823316  0.89709797  0.60306682     0.36200
C684        C  0.06681603  0.89810540  0.62782923    -0.06000
C685        C  0.09819095  0.92356714  0.62740688    -0.33000
C686        C  0.08238648  0.94683631  0.60250900     0.36100
H687        H  0.46566586  0.91885960  0.55926889     0.16400
O688        O  0.48652230  0.87260389  0.60167034    -0.60500
H689        H  0.13540079  0.92582023  0.64560810     0.16500
O690        O  0.11412568  0.97111814  0.60270427    -0.60600
H691        H  0.10489880  0.98592816  0.61954593     0.43500
H692        H  0.45934936  0.87937017  0.61298744     0.43400
C693        C  0.19630554  0.84416209  0.72815612    -0.05700
C694        C  0.23157745  0.82441128  0.72006294    -0.33100
C695        C  0.28056868  0.82238437  0.74311855     0.36200
C696        C  0.29486356  0.84056900  0.77499387    -0.06000
C697        C  0.25727326  0.85862392  0.78392083    -0.33000
C698        C  0.20904792  0.86102221  0.76045149     0.36100
H699        H  0.22160713  0.81116914  0.69513207     0.16400
O700        O  0.31429848  0.80369804  0.73297408    -0.60500
H701        H  0.26489917  0.87131329  0.80915894     0.16500
O702        O  0.17434298  0.87972866  0.76949981    -0.60600
H703        H  0.18107751  0.89978757  0.76011467     0.43500
H704        H  0.30121115  0.78295566  0.73484879     0.43400
C705        C  0.46348566  0.82466663  0.77257727    -0.05700
C706        C  0.01502548  0.81707511  0.78284034    -0.33100
C707        C  0.04572961  0.81987061  0.75818333     0.36200
C708        C  0.02472233  0.83013620  0.72243063    -0.06000
C709        C  0.47221248  0.83528539  0.71152066    -0.33000
C710        C  0.44179060  0.83308966  0.73633770     0.36100
H711        H  0.03237436  0.81117728  0.81092132     0.16400
O712        O  0.09674373  0.81484878  0.77034641    -0.60500
H713        H  0.45501086  0.84290385  0.68409368     0.16500
O714        O  0.39279254  0.84310600  0.72634880    -0.60600
H715        H  0.37612543  0.83205028  0.70361424     0.43500
H716        H  0.11158654  0.83406498  0.78179393     0.43400
C717        C  0.13183702  0.73218856  0.61109959    -0.05700
C718        C  0.10399049  0.73325734  0.63774005    -0.33100
C719        C  0.09167858  0.76078082  0.65108278     0.36200
C720        C  0.10713263  0.78786467  0.63766642    -0.06000
C721        C  0.13438771  0.78678793  0.61062639    -0.33000
C722        C  0.14648732  0.75924526  0.59716981     0.36100
H723        H  0.09117574  0.71262969  0.64802055     0.16400
O724        O  0.06249276  0.76098433  0.67590597    -0.60500
H725        H  0.14757577  0.80736710  0.60049723     0.16500
O726        O  0.17522898  0.75901990  0.57207475    -0.60600
H727        H  0.15245241  0.76613625  0.54896893     0.43500
H728        H  0.08411115  0.75248052  0.69865511     0.43400
C729        C  0.58365598  0.87146948  0.15318113     0.86300
C730        C  0.54653748  0.86467986  0.17671211    -0.53900
C731        C  0.55704530  0.83946441  0.19768811     0.09200
C732        C  0.60549786  0.82358377  0.19375045     0.20200
C733        C  0.63589122  0.87320601  0.18098241    -0.54700
C734        C  0.64700545  0.84804811  0.20187225     0.09300
C735        C  0.58561687  0.84239832  0.13160093    -0.54200
C736        C  0.59723385  0.81735834  0.15268370     0.09900
H737        H  0.51503051  0.87926876  0.17722817     0.14400
H738        H  0.61591993  0.80342976  0.21099582     0.00200
H739        H  0.66281193  0.89174544  0.18414942     0.14700
H740        H  0.57942585  0.84189582  0.10210024     0.14500
C741        C  0.66667134  0.64951326  0.10194778     0.86300
C742        C  0.66020074  0.67905542  0.12117767    -0.53900
C743        C  0.64482064  0.70262122  0.09808229     0.09200
C744        C  0.63762678  0.69457184  0.05750393     0.20200
C745        C  0.61551067  0.64414493  0.07390460    -0.54700
C746        C  0.60008540  0.66793703  0.05134309     0.09300
C747        C  0.70318015  0.65742915  0.07802914    -0.54200
C748        C  0.68837595  0.68098428  0.05500005     0.09900
H749        H  0.66646898  0.68098024  0.15060483     0.14400
H750        H  0.62456439  0.71333977  0.03831148     0.00200
H751        H  0.59260362  0.62379483  0.07267225     0.14700
H752        H  0.73571444  0.64423276  0.07644719     0.14500
C753        C  0.91676993  0.86199300  0.34900320     0.86300
C754        C  0.95236106  0.85487640  0.32441211    -0.53900
C755        C  0.93683364  0.83112685  0.30136942     0.09200
C756        C  0.88680063  0.81611878  0.30507555     0.20200
C757        C  0.86510425  0.86603642  0.32174715    -0.54700
C758        C  0.84778019  0.84178420  0.29937821     0.09300
C759        C  0.91189327  0.83240976  0.36860099    -0.54200
C760        C  0.89595198  0.80842660  0.34588922     0.09900
H761        H  0.98518934  0.86825374  0.32269167     0.14400
H762        H  0.87603487  0.79609949  0.28739986     0.00200
H763        H  0.84414836  0.88672026  0.32078212     0.14700
H764        H  0.91887404  0.83084498  0.39808843     0.14500
C765        C  0.83141867  0.64136984  0.40641354     0.86300
C766        C  0.83798975  0.67006441  0.38543814    -0.53900
C767        C  0.85112797  0.69505914  0.40677822     0.09200
C768        C  0.85661792  0.68928715  0.44765686     0.20200
C769        C  0.88188053  0.63888083  0.43580890    -0.54700
C770        C  0.89649683  0.66415311  0.45673034     0.09300
C771        C  0.79299648  0.64936523  0.42820933    -0.54200
C772        C  0.80537376  0.67446835  0.44967417     0.09900
H773        H  0.83403064  0.67035532  0.35613878     0.14400
H774        H  0.86614850  0.71003548  0.46428357     0.00200
H775        H  0.90542442  0.61927876  0.43993124     0.14700
H776        H  0.75956664  0.63555433  0.42759068     0.14500
C777        C  0.57218124  0.14686836  0.15075975     0.86300
C778        C  0.57760933  0.17667606  0.13156830    -0.53900
C779        C  0.59470153  0.20039366  0.15463116     0.09200
C780        C  0.60376262  0.19222439  0.19532890     0.20200
C781        C  0.62418343  0.14217752  0.17737364    -0.54700
C782        C  0.64146899  0.16600519  0.20017952     0.09300
C783        C  0.53729289  0.15420766  0.17575017    -0.54200
C784        C  0.55289325  0.17811989  0.19847781     0.09900
H785        H  0.57020176  0.17852339  0.10209062     0.14400
H786        H  0.61671414  0.21142492  0.21430780     0.00200
H787        H  0.64607892  0.12192085  0.17745474     0.14700
H788        H  0.50388348  0.14141569  0.17725612     0.14500
C789        C  0.66576863  0.36642902  0.09351613     0.86300
C790        C  0.70199548  0.35764075  0.07000888    -0.53900
C791        C  0.68699747  0.33292189  0.04855005     0.09200
C792        C  0.63616881  0.31888705  0.05224647     0.20200
C793        C  0.61412733  0.36969504  0.06577356    -0.54700
C794        C  0.59764282  0.34471977  0.04461238     0.09300
C795        C  0.66026282  0.33773881  0.11480331    -0.54200
C796        C  0.64405072  0.31296556  0.09348007     0.09900
H797        H  0.73570420  0.37009761  0.06834687     0.14400
H798        H  0.62445129  0.29847799  0.03519936     0.00200
H799        H  0.59173656  0.38992120  0.06396573     0.14700
H800        H  0.66642384  0.33745793  0.14430022     0.14500
C801        C  0.90857922  0.14361313  0.34526402     0.86300
C802        C  0.90502412  0.17281731  0.36630984    -0.53900
C803        C  0.89109573  0.19742936  0.34459305     0.09200
C804        C  0.88244135  0.19062722  0.30357377     0.20200
C805        C  0.85669228  0.14031656  0.31774297    -0.54700
C806        C  0.84289854  0.16492350  0.29633711     0.09300
C807        C  0.94552039  0.15179650  0.32170900    -0.54200
C808        C  0.93224319  0.17640363  0.30028841     0.09900
H809        H  0.91086330  0.17348194  0.39575019     0.14400
H810        H  0.87133564  0.21037843  0.28557387     0.00200
H811        H  0.83217174  0.12061082  0.31610621     0.14700
H812        H  0.97916440  0.13961377  0.32068001     0.14500
C813        C  0.83245111  0.36666566  0.39953587     0.86300
C814        C  0.79413818  0.35979104  0.42222618    -0.53900
C815        C  0.80490718  0.33490214  0.44382320     0.09200
C816        C  0.85426214  0.31943828  0.44150587     0.20200
C817        C  0.88376088  0.36911157  0.42840829    -0.54700
C818        C  0.89491084  0.34441273  0.45002743     0.09300
C819        C  0.83609618  0.33736746  0.37889395    -0.54200
C820        C  0.84750922  0.31263658  0.40063015     0.09900
H821        H  0.76220334  0.37416867  0.42219139     0.14400
H822        H  0.86360899  0.29949286  0.45943448     0.00200
H823        H  0.91013358  0.38793995  0.43200249     0.14700
H824        H  0.83225561  0.33671772  0.34963274     0.14500
O825        O  0.80627545  0.53562992  0.28304137    -0.74600
O826        O  0.76788789  0.47725517  0.20603692    -0.74600
O827        O  0.76868525  0.53832897  0.20999816    -0.74700
O828        O  0.80603413  0.47509677  0.27930576    -0.74700
O829        O  0.72729392  0.47358783  0.28683232    -0.74700
O830        O  0.68993786  0.53698242  0.21713056    -0.74700
O831        O  0.68942010  0.47588523  0.21376182    -0.74600
O832        O  0.72713473  0.53471861  0.28990497    -0.74700
Ni833      Ni  0.78997987  0.50659934  0.24423110     1.25400
Ni834      Ni  0.70563665  0.50520430  0.25214342     1.25400
C835        C  0.77278316  0.54490786  0.29888616     0.87600
C836        C  0.72241097  0.46658555  0.19748215     0.87500
C837        C  0.72355950  0.54862827  0.20264505     0.87500
C838        C  0.77300279  0.46409744  0.29472773     0.87700
O839        O  0.54646923  0.03906009  0.02898336    -0.74600
O840        O  0.51280012  0.97456508  0.46014049    -0.74600
O841        O  0.50802640  0.03518928  0.45630954    -0.74700
O842        O  0.55108976  0.97871740  0.03312158    -0.74700
O843        O  0.97210548  0.97590292  0.04011365    -0.74700
O844        O  0.92980444  0.03393631  0.46455282    -0.74700
O845        O  0.93396618  0.97290698  0.46709839    -0.74600
O846        O  0.96849994  0.03672441  0.03758491    -0.74700
Ni847      Ni  0.53230472  0.00692907  0.49429769     1.25400
Ni848      Ni  0.94822593  0.00480214  0.00261119     1.25400
C849        C  0.51320621  0.04848848  0.04488330     0.87600
C850        C  0.96805777  0.96293671  0.45220646     0.87500
C851        C  0.96217162  0.04431445  0.44808379     0.87500
C852        C  0.51858759  0.96791168  0.04913441     0.87700
C853        C  0.78804247  0.44012658  0.32202622    -0.05700
C854        C  0.75425335  0.41641214  0.32347107    -0.33100
C855        C  0.76845725  0.39289064  0.34836598     0.36200
C856        C  0.81697459  0.39305299  0.37326414    -0.06000
C857        C  0.85052121  0.41719264  0.37156533    -0.33000
C858        C  0.83644452  0.44038160  0.34631710     0.36100
H859        H  0.71709158  0.41566038  0.30454056     0.16400
O860        O  0.73520904  0.36920723  0.34729787    -0.60500
H861        H  0.88843421  0.41840335  0.38886332     0.16500
O862        O  0.87050755  0.46329093  0.34568798    -0.60600
H863        H  0.86462912  0.47838138  0.36348264     0.43500
H864        H  0.70804317  0.37703759  0.35793112     0.43400
C865        C  0.92148806  0.11631700  0.37036003    -0.05700
C866        C  0.96461245  0.09869066  0.37157853    -0.33100
C867        C  0.97754026  0.07499782  0.39606916     0.36200
C868        C  0.94701355  0.06780627  0.41998319    -0.06000
C869        C  0.90285101  0.08434830  0.41803669    -0.33000
C870        C  0.88995826  0.10826355  0.39357320     0.36100
H871        H  0.98964233  0.10264712  0.35411256     0.16400
O872        O  0.51998810  0.05873202  0.39587988    -0.60500
H873        H  0.87871571  0.07927698  0.43617135     0.16500
O874        O  0.84725704  0.12437855  0.39348051    -0.60600
H875        H  0.81841939  0.11181869  0.37965022     0.43500
H876        H  0.54895277  0.07087580  0.41037315     0.43400
C877        C  0.88108605  0.22718561  0.35894670    -0.05700
C878        C  0.83978685  0.24391694  0.33949053    -0.33100
C879        C  0.82775719  0.27141098  0.35295738     0.36200
C880        C  0.85751228  0.28283868  0.38637031    -0.06000
C881        C  0.89868037  0.26605563  0.40587995    -0.33000
C882        C  0.91115899  0.23877255  0.39217646     0.36100
H883        H  0.81581435  0.23540344  0.31408965     0.16400
O884        O  0.78612967  0.28653686  0.33358195    -0.60500
H885        H  0.92214246  0.27434618  0.43152822     0.16500
O886        O  0.95347186  0.22403661  0.41118937    -0.60600
H887        H  0.98031419  0.22906349  0.39850258     0.43500
H888        H  0.75761144  0.27946892  0.34357714     0.43400
C889        C  0.68027836  0.39390973  0.11880560    -0.05700
C890        C  0.72600648  0.41034585  0.12210430    -0.33100
C891        C  0.73959769  0.43435724  0.14674299     0.36200
C892        C  0.70772356  0.44261203  0.16921705    -0.06000
C893        C  0.66163946  0.42682621  0.16551811    -0.33000
C894        C  0.64784009  0.40289681  0.14076563     0.36100
H895        H  0.75264942  0.40491157  0.10639983     0.16400
O896        O  0.78483493  0.44916729  0.14897357    -0.60500
H897        H  0.63635887  0.43255225  0.18247649     0.16500
O898        O  0.60324251  0.38755836  0.13930563    -0.60600
H899        H  0.57601849  0.40076282  0.12559018     0.43500
H900        H  0.77696778  0.46509546  0.13018040     0.43400
C901        C  0.94459771  0.34123050  0.47615570    -0.05700
C902        C  0.98335807  0.32682271  0.46482183    -0.33100
C903        C  0.53302534  0.32673606  0.48699065     0.36200
C904        C  0.54473515  0.34206216  0.02090198    -0.06000
C905        C  0.50474871  0.35535945  0.03270016    -0.33000
C906        C  0.95503124  0.35489454  0.01065951     0.36100
H907        H  0.97557928  0.31654380  0.43798276     0.16400
O908        O  0.56953638  0.31183800  0.47495355    -0.60500
H909        H  0.51192106  0.36623204  0.05917391     0.16500
O910        O  0.91723259  0.36878506  0.02243019    -0.60600
H911        H  0.90999859  0.35545304  0.04158813     0.43500
H912        H  0.56867574  0.32010072  0.45044109     0.43400
C913        C  0.77384430  0.32611159  0.46938847    -0.05700
C914        C  0.79743552  0.32127769  0.00633271    -0.33100
C915        C  0.76870442  0.32026706  0.03239123     0.36200
C916        C  0.71565259  0.32410099  0.02156868    -0.06000
C917        C  0.69204918  0.32611755  0.48435411    -0.33000
C918        C  0.72050145  0.32668870  0.45823386     0.36100
H919        H  0.83840088  0.32043752  0.01536614     0.16400
O920        O  0.79324229  0.31816252  0.06864600    -0.60500
H921        H  0.65217625  0.33036815  0.47561732     0.16500
O922        O  0.69605814  0.32871955  0.42189293    -0.60600
H923        H  0.68050833  0.34889333  0.41876948     0.44700
H924        H  0.78794846  0.29700797  0.07532554     0.43400
C925        C  0.55597113  0.12085908  0.12355909    -0.05700
C926        C  0.50905951  0.10547197  0.11905119    -0.33100
C927        C  0.49465563  0.08209165  0.09371488     0.36200
C928        C  0.52706349  0.07331051  0.07190585    -0.06000
C929        C  0.57367161  0.08861096  0.07601905    -0.33000
C930        C  0.58796263  0.11219531  0.10115270     0.36100
H931        H  0.48205426  0.11124064  0.13431411     0.16400
O932        O  0.94901516  0.06764885  0.09116067    -0.60500
H933        H  0.59930841  0.08248835  0.05948826     0.16500
O934        O  0.63386346  0.12644135  0.10396819    -0.60600
H935        H  0.62826469  0.14043005  0.08301115     0.43500
H936        H  0.92340389  0.08031695  0.07477870     0.43400
C937        C  0.69379541  0.16734041  0.22428655    -0.05700
C938        C  0.70203276  0.17749649  0.26045857    -0.33100
C939        C  0.75070893  0.17716667  0.28406581     0.36200
C940        C  0.79215113  0.16738063  0.27127372    -0.06000
C941        C  0.78456986  0.15839895  0.23487300    -0.33000
C942        C  0.73590735  0.15841740  0.21134518     0.36100
H943        H  0.67058819  0.18486390  0.27080285     0.16400
O944        O  0.75736198  0.18621925  0.31965848    -0.60500
H945        H  0.81639748  0.15099470  0.22481574     0.16500
O946        O  0.73004627  0.14981523  0.17567923    -0.60600
H947        H  0.73040850  0.16880829  0.16206002     0.43500
H948        H  0.75612308  0.16746003  0.33357762     0.43400
C949        C  0.96304463  0.18644218  0.27518254    -0.05700
C950        C  0.93992486  0.18919383  0.23794878    -0.33100
C951        C  0.96948739  0.18954824  0.21244740     0.36200
C952        C  0.52285787  0.18744944  0.22431691    -0.06000
C953        C  0.54599040  0.18857234  0.26173723    -0.33000
C954        C  0.51647918  0.18815842  0.28718157     0.36100
H955        H  0.89892532  0.18846972  0.22837574     0.16400
O956        O  0.94599366  0.19065179  0.17586228    -0.60500
H957        H  0.58674450  0.18721706  0.27134752     0.16500
O958        O  0.54026203  0.18703815  0.32367002    -0.60600
H959        H  0.53648475  0.20741946  0.33330014     0.43500
H960        H  0.92723085  0.17125346  0.16998306     0.43400
C961        C  0.60624661  0.23025193  0.14076984    -0.05700
C962        C  0.57361796  0.24174199  0.10903467    -0.33100
C963        C  0.58546919  0.26848471  0.09337256     0.36200
C964        C  0.63098085  0.28420220  0.10915337    -0.06000
C965        C  0.66301013  0.27315962  0.14142711    -0.33000
C966        C  0.65109591  0.24641231  0.15717129     0.36100
H967        H  0.53851419  0.22996929  0.09632834     0.16400
O968        O  0.55163212  0.27931099  0.06310641    -0.60500
H969        H  0.69800291  0.28503084  0.15415505     0.16500
O970        O  0.68444157  0.23589883  0.18788635    -0.60600
H971        H  0.70915900  0.22383554  0.17882558     0.43500
H972        H  0.52850369  0.29226919  0.07273408     0.43400
C973        C  0.81480823  0.61453076  0.38043235    -0.05700
C974        C  0.84460632  0.58852773  0.38190700    -0.33100
C975        C  0.83119380  0.56579885  0.35554941     0.36200
C976        C  0.78670393  0.56807486  0.32753354    -0.06000
C977        C  0.75562381  0.59304637  0.32650283    -0.33000
C978        C  0.76933719  0.61615216  0.35242826     0.36100
H979        H  0.87903921  0.58521231  0.40267274     0.16400
O980        O  0.86116952  0.54093182  0.35804700    -0.60500
H981        H  0.72125933  0.59509213  0.30484147     0.16500
O982        O  0.73909549  0.64096188  0.34919159    -0.60600
H983        H  0.71048305  0.63489725  0.35963241     0.43500
H984        H  0.88958072  0.54712240  0.34744329     0.43400
C985        C  0.93104040  0.88843132  0.37580816    -0.05700
C986        C  0.97838113  0.90342597  0.38198195    -0.33100
C987        C  0.99082255  0.92750627  0.40654532     0.36200
C988        C  0.95580577  0.93747942  0.42580823    -0.06000
C989        C  0.90886850  0.92234321  0.42025393    -0.33000
C990        C  0.89670103  0.89791732  0.39609867     0.36100
H991        H  0.00715640  0.89655275  0.36873790     0.16400
O992        O  0.53740395  0.94129666  0.41103249    -0.60500
H993        H  0.88142359  0.92919405  0.43498114     0.16500
O994        O  0.85051459  0.88371564  0.39207057    -0.60600
H995        H  0.85531876  0.86934696  0.41263272     0.43500
H996        H  0.56107924  0.92903582  0.42941975     0.43400
C997        C  0.88512463  0.77860718  0.36006628    -0.05700
C998        C  0.91904535  0.76700284  0.39110842    -0.33100
C999        C  0.90809441  0.74010282  0.40691309     0.36200
C1000       C  0.86269697  0.72421261  0.39155431    -0.06000
C1001       C  0.82904297  0.73555098  0.36025982    -0.33000
C1002       C  0.83989510  0.76253101  0.34449186     0.36100
H1003       H  0.95434036  0.77883652  0.40316248     0.16400
O1004       O  0.94319868  0.72876972  0.43618296    -0.60500
H1005       H  0.79381628  0.72362131  0.34825531     0.16500
O1006       O  0.80465310  0.77386028  0.31529555    -0.60600
H1007       H  0.80474710  0.76014667  0.29459051     0.43500
H1008       H  0.94183155  0.74190581  0.45712121     0.43400
C1009       C  0.68232487  0.62367580  0.12894670    -0.05700
C1010       C  0.73235558  0.61284914  0.13803224    -0.33100
C1011       C  0.74631841  0.58875769  0.16190690     0.36200
C1012       C  0.71019490  0.57461218  0.17760415    -0.06000
C1013       C  0.66105824  0.58640214  0.17033572    -0.33000
C1014       C  0.64741663  0.61099203  0.14706535     0.36100
H1015       H  0.76200968  0.62331179  0.12783254     0.16400
O1016       O  0.79566876  0.57938883  0.16961490    -0.60500
H1017       H  0.63294039  0.57674782  0.18299465     0.16500
O1018       O  0.59947676  0.62224616  0.14197909    -0.60600
H1019       H  0.60219264  0.63759596  0.16144250     0.43500
H1020       H  0.81396086  0.59205640  0.19050751     0.43400
C1021       C  0.94946551  0.66747362  0.48067786    -0.05700
C1022       C  0.98907371  0.65156788  0.47124721    -0.33100
C1023       C  0.53817125  0.65169515  0.49392272     0.36200
C1024       C  0.54946025  0.66892553  0.02593822    -0.06000
C1025       C  0.51164802  0.68640786  0.03460403    -0.33000
C1026       C  0.96194182  0.68586929  0.01231161     0.36100
H1027       H  0.98237872  0.63874998  0.44612014     0.16400
O1028       O  0.57513994  0.63522206  0.48430926    -0.60500
H1029       H  0.52037601  0.69991959  0.05933118     0.16500
O1030       O  0.92587364  0.70229970  0.02288196    -0.60600
H1031       H  0.93427478  0.72365039  0.01912275     0.43500
H1032       H  0.57036340  0.61442005  0.49242250     0.43400
C1033       C  0.77387167  0.68406249  0.47470873    -0.05700
C1034       C  0.79754913  0.69064787  0.01125554    -0.33100
C1035       C  0.76928520  0.69273186  0.03741271     0.36200
C1036       C  0.71626275  0.68847717  0.02710271    -0.06000
C1037       C  0.69182649  0.68508791  0.49003358    -0.33000
C1038       C  0.72020431  0.68288665  0.46385471     0.36100
H1039       H  0.83827511  0.69169100  0.02029696     0.16400
O1040       O  0.79391200  0.69758327  0.07336033    -0.60500
H1041       H  0.65102261  0.68183232  0.48168364     0.16500
O1042       O  0.69518974  0.67784097  0.42807979    -0.60600
H1043       H  0.69368626  0.69779582  0.41623402     0.43500
H1044       H  0.81145684  0.67854079  0.08184450     0.43400
C1045       C  0.53458612  0.94514045  0.07756289    -0.05700
C1046       C  0.50250367  0.92052210  0.07853885    -0.33100
C1047       C  0.51823583  0.89710402  0.10307824     0.36200
C1048       C  0.56681943  0.89810899  0.12783941    -0.06000
C1049       C  0.59820108  0.92356706  0.12741362    -0.33000
C1050       C  0.58240102  0.94683559  0.10251393     0.36100
H1051       H  0.96566294  0.91885617  0.05926412     0.16400
O1052       O  0.98652586  0.87259907  0.10166349    -0.60500
H1053       H  0.63541350  0.92581680  0.14561216     0.16500
O1054       O  0.61414722  0.97111322  0.10270428    -0.60600
H1055       H  0.60493179  0.98592520  0.11954872     0.43500
H1056       H  0.95935357  0.87936444  0.11298178     0.43400
C1057       C  0.69629977  0.84415699  0.22816087    -0.05700
C1058       C  0.73157348  0.82441140  0.22006018    -0.33100
C1059       C  0.78056676  0.82238534  0.24311225     0.36200
C1060       C  0.79486131  0.84056588  0.27499062    -0.06000
C1061       C  0.75726940  0.85861401  0.28392610    -0.33000
C1062       C  0.70904138  0.86101122  0.26046078     0.36100
H1063       H  0.72160312  0.81117353  0.19512597     0.16400
O1064       O  0.81429888  0.80370457  0.23296159    -0.60500
H1065       H  0.76489714  0.87129927  0.30916738     0.16500
O1066       O  0.67433408  0.87971157  0.26951656    -0.60600
H1067       H  0.68106228  0.89977319  0.26013573     0.43500
H1068       H  0.80122033  0.78296023  0.23483825     0.43400
C1069       C  0.96348708  0.82466800  0.27257184    -0.05700
C1070       C  0.51502297  0.81707299  0.28284274    -0.33100
C1071       C  0.54572611  0.81986778  0.25818517     0.36200
C1072       C  0.52471794  0.83013324  0.22243263    -0.06000
C1073       C  0.97221808  0.83529143  0.21151730    -0.33000
C1074       C  0.94179500  0.83309553  0.23633355     0.36100
H1075       H  0.53237255  0.81117576  0.31092383     0.16400
O1076       O  0.59674031  0.81484581  0.27034746    -0.60500
H1077       H  0.95501779  0.84291220  0.18409116     0.16500
O1078       O  0.89279899  0.84311541  0.22634559    -0.60600
H1079       H  0.87612988  0.83206193  0.20360981     0.43500
H1080       H  0.61158045  0.83405762  0.28180973     0.43400
C1081       C  0.63182472  0.73219286  0.11109481    -0.05700
C1082       C  0.60397431  0.73326121  0.13773290    -0.33100
C1083       C  0.59166302  0.76078440  0.15107637     0.36200
C1084       C  0.60712241  0.78786824  0.13766357    -0.06000
C1085       C  0.63437776  0.78679209  0.11062369    -0.33000
C1086       C  0.64647586  0.75924968  0.09716580     0.36100
H1087       H  0.59115765  0.71263341  0.14801182     0.16400
O1088       O  0.56247364  0.76098786  0.17589728    -0.60500
H1089       H  0.64756808  0.80737139  0.10049630     0.16500
O1090       O  0.67521767  0.75902466  0.07207086    -0.60600
H1091       H  0.65244022  0.76613958  0.04896469     0.43500
H1092       H  0.58408816  0.75248156  0.19864635     0.43400
C1093       C  0.58365401  0.87146937  0.65318054     0.86300
C1094       C  0.54653589  0.86467973  0.67671178    -0.53900
C1095       C  0.55704460  0.83946466  0.69768836     0.09200
C1096       C  0.60549724  0.82358412  0.69375065     0.20200
C1097       C  0.63588963  0.87320628  0.68098150    -0.54700
C1098       C  0.64700456  0.84804863  0.70187173     0.09300
C1099       C  0.58561527  0.84239795  0.63160078    -0.54200
C1100       C  0.59723287  0.81735817  0.65268394     0.09900
H1101       H  0.51502842  0.87926833  0.67722754     0.14400
H1102       H  0.61591975  0.80343041  0.71099652     0.00200
H1103       H  0.66281043  0.89174560  0.68414763     0.14700
H1104       H  0.57942392  0.84189515  0.60210007     0.14500
C1105       C  0.66666918  0.64951250  0.60194712     0.86300
C1106       C  0.66019825  0.67905454  0.62117714    -0.53900
C1107       C  0.64481871  0.70262057  0.59808198     0.09200
C1108       C  0.63762571  0.69457139  0.55750355     0.20200
C1109       C  0.61550893  0.64414435  0.57390340    -0.54700
C1110       C  0.60008421  0.66793660  0.55134202     0.09300
C1111       C  0.70317867  0.65742851  0.57802903    -0.54200
C1112       C  0.68837512  0.68098381  0.55500006     0.09900
H1113       H  0.66646612  0.68097912  0.65060429     0.14400
H1114       H  0.62456369  0.71333938  0.53831114     0.00200
H1115       H  0.59260174  0.62379426  0.57267056     0.14700
H1116       H  0.73571283  0.64423193  0.57644723     0.14500
C1117       C  0.91676859  0.86199228  0.84900409     0.86300
C1118       C  0.95236024  0.85487574  0.82441341    -0.53900
C1119       C  0.93683322  0.83112623  0.80137057     0.09200
C1120       C  0.88679985  0.81611815  0.80507624     0.20200
C1121       C  0.86510338  0.86603583  0.82174760    -0.54700
C1122       C  0.84777931  0.84178364  0.79937862     0.09300
C1123       C  0.91189144  0.83240911  0.86860173    -0.54200
C1124       C  0.89595071  0.80842594  0.84588994     0.09900
H1125       H  0.98518840  0.86825329  0.82269317     0.14400
H1126       H  0.87603439  0.79609887  0.78740049     0.00200
H1127       H  0.84414796  0.88671987  0.82078225     0.14700
H1128       H  0.91887184  0.83084434  0.89808916     0.14500
C1129       C  0.83142005  0.64136890  0.90641467     0.86300
C1130       C  0.83799181  0.67006340  0.88543936    -0.53900
C1131       C  0.85112986  0.69505813  0.90677944     0.09200
C1132       C  0.85661933  0.68928618  0.94765801     0.20200
C1133       C  0.88188169  0.63887972  0.93581021    -0.54700
C1134       C  0.89649801  0.66415198  0.95673171     0.09300
C1135       C  0.79299764  0.64936447  0.92821015    -0.54200
C1136       C  0.80537484  0.67446762  0.94967491     0.09900
H1137       H  0.83403291  0.67035431  0.85614002     0.14400
H1138       H  0.86614991  0.71003451  0.96428470     0.00200
H1139       H  0.90542559  0.61927764  0.93993232     0.14700
H1140       H  0.75956764  0.63555366  0.92759125     0.14500
C1141       C  0.57217803  0.14686807  0.65075942     0.86300
C1142       C  0.57760664  0.17667586  0.63156819    -0.53900
C1143       C  0.59469929  0.20039330  0.65463127     0.09200
C1144       C  0.60376036  0.19222375  0.69532892     0.20200
C1145       C  0.62418005  0.14217684  0.67737330    -0.54700
C1146       C  0.64146618  0.16600436  0.70017920     0.09300
C1147       C  0.53728962  0.15420757  0.67574975    -0.54200
C1148       C  0.55289090  0.17811944  0.69847785     0.09900
H1149       H  0.57019896  0.17852336  0.60209053     0.14400
H1150       H  0.61671222  0.21142410  0.71430804     0.00200
H1151       H  0.64607505  0.12191998  0.67745432     0.14700
H1152       H  0.50387943  0.14141615  0.67725517     0.14500
C1153       C  0.66576664  0.36642917  0.59351682     0.86300
C1154       C  0.70199317  0.35764083  0.57000940    -0.53900
C1155       C  0.68699508  0.33292192  0.54855075     0.09200
C1156       C  0.63616647  0.31888713  0.55224738     0.20200
C1157       C  0.61412526  0.36969523  0.56577428    -0.54700
C1158       C  0.59764052  0.34471991  0.54461323     0.09300
C1159       C  0.66026073  0.33773906  0.61480416    -0.54200
C1160       C  0.64404852  0.31296575  0.59348104     0.09900
H1161       H  0.73570142  0.37009790  0.56834680     0.14400
H1162       H  0.62444889  0.29847802  0.53520038     0.00200
H1163       H  0.59173472  0.38992149  0.56396625     0.14700
H1164       H  0.66642178  0.33745831  0.64430107     0.14500
C1165       C  0.90857444  0.14361026  0.84526357     0.86300
C1166       C  0.90501999  0.17281451  0.86630952    -0.53900
C1167       C  0.89109280  0.19742671  0.84459276     0.09200
C1168       C  0.88243889  0.19062469  0.80357355     0.20200
C1169       C  0.85668783  0.14031427  0.81774219    -0.54700
C1170       C  0.84289535  0.16492136  0.79633641     0.09300
C1171       C  0.94551638  0.15179326  0.82170899    -0.54200
C1172       C  0.93224059  0.17640066  0.80028868     0.09900
H1173       H  0.91085906  0.17347922  0.89574987     0.14400
H1174       H  0.87133402  0.21037608  0.78557381     0.00200
H1175       H  0.83216656  0.12060884  0.81610515     0.14700
H1176       H  0.97916018  0.13961027  0.82068030     0.14500
C1177       C  0.83245273  0.36666413  0.89953441     0.86300
C1178       C  0.79413939  0.35978940  0.92222438    -0.53900
C1179       C  0.80490856  0.33490067  0.94382174     0.09200
C1180       C  0.85426373  0.31943693  0.94150477     0.20200
C1181       C  0.88376224  0.36911023  0.92840707    -0.54700
C1182       C  0.89491207  0.34441150  0.95002639     0.09300
C1183       C  0.83609846  0.33736589  0.87889275    -0.54200
C1184       C  0.84751134  0.31263511  0.90062915     0.09900
H1185       H  0.76220428  0.37416692  0.92218919     0.14400
H1186       H  0.86361064  0.29949157  0.95943348     0.00200
H1187       H  0.91013520  0.38793845  0.93200110     0.14700
H1188       H  0.83225801  0.33671596  0.84963156     0.14500
O1189       O  0.80627538  0.53562971  0.78304208    -0.74600
O1190       O  0.76788754  0.47725547  0.70603712    -0.74600
O1191       O  0.76868441  0.53832922  0.70999888    -0.74700
O1192       O  0.80603445  0.47509658  0.77930583    -0.74700
O1193       O  0.72729435  0.47358718  0.78683261    -0.74700
O1194       O  0.68993726  0.53698243  0.71713172    -0.74700
O1195       O  0.68941992  0.47588533  0.71376230    -0.74600
O1196       O  0.72713488  0.53471799  0.78990614    -0.74700
Ni1197     Ni  0.78997963  0.50659941  0.74423152     1.25400
Ni1198     Ni  0.70563661  0.50520401  0.75214423     1.25400
C1199       C  0.77278324  0.54490733  0.79888718     0.87600
C1200       C  0.72241067  0.46658580  0.69748245     0.87500
C1201       C  0.72355854  0.54862836  0.70264592     0.87500
C1202       C  0.77300326  0.46409684  0.79472766     0.87700
O1203       O  0.54646936  0.03905969  0.52898368    -0.74600
O1204       O  0.51279876  0.97456463  0.96014158    -0.74600
O1205       O  0.50802323  0.03518852  0.95630977    -0.74700
O1206       O  0.55108815  0.97871690  0.53312099    -0.74700
O1207       O  0.97210280  0.97590342  0.54011179    -0.74700
O1208       O  0.92980127  0.03393433  0.96455396    -0.74700
O1209       O  0.93396571  0.97290519  0.96710071    -0.74600
O1210       O  0.96849986  0.03672512  0.53758420    -0.74700
Ni1211     Ni  0.53230391  0.00692901  0.99429804     1.25400
Ni1212     Ni  0.94822612  0.00480342  0.50260958     1.25400
C1213       C  0.51320569  0.04848806  0.54488305     0.87600
C1214       C  0.96805679  0.96293527  0.95220806     0.87500
C1215       C  0.96216722  0.04431252  0.94808392     0.87500
C1216       C  0.51858488  0.96791124  0.54913293     0.87700
C1217       C  0.78804320  0.44012560  0.82202558    -0.05700
C1218       C  0.75425554  0.41640991  0.82346852    -0.33100
C1219       C  0.76845985  0.39288819  0.84836309     0.36200
C1220       C  0.81697611  0.39305145  0.87326263    -0.06000
C1221       C  0.85052119  0.41719238  0.87156572    -0.33000
C1222       C  0.83644414  0.44038157  0.84631786     0.36100
H1223       H  0.71709466  0.41565746  0.80453690     0.16400
O1224       O  0.73521314  0.36920377  0.84729343    -0.60500
H1225       H  0.88843314  0.41840419  0.88886519     0.16500
O1226       O  0.87050556  0.46329221  0.84569061    -0.60600
H1227       H  0.86462813  0.47838039  0.86348815     0.43500
H1228       H  0.70804645  0.37703276  0.85792682     0.43400
C1229       C  0.92148214  0.11631391  0.87035920    -0.05700
C1230       C  0.96460560  0.09868696  0.87157705    -0.33100
C1231       C  0.97753351  0.07499439  0.89606785     0.36200
C1232       C  0.94700767  0.06780355  0.91998266    -0.06000
C1233       C  0.90284526  0.08434567  0.91803632    -0.33000
C1234       C  0.88995243  0.10826079  0.89357258     0.36100
H1235       H  0.98963481  0.10264266  0.85411045     0.16400
O1236       O  0.51998199  0.05872869  0.89587876    -0.60500
H1237       H  0.87871042  0.07927466  0.93617141     0.16500
O1238       O  0.84725145  0.12437600  0.89347992    -0.60600
H1239       H  0.81841369  0.11181639  0.87964936     0.43500
H1240       H  0.54894730  0.07087220  0.91037163     0.43400
C1241       C  0.88108455  0.22718324  0.85894627    -0.05700
C1242       C  0.83978547  0.24391479  0.83949043    -0.33100
C1243       C  0.82775710  0.27140915  0.85295716     0.36200
C1244       C  0.85751364  0.28283704  0.88636949    -0.06000
C1245       C  0.89868196  0.26605392  0.90587867    -0.33000
C1246       C  0.91115907  0.23877037  0.89217536     0.36100
H1247       H  0.81581211  0.23540124  0.81408990     0.16400
O1248       O  0.78612940  0.28653517  0.83358225    -0.60500
H1249       H  0.92214522  0.27434475  0.93152642     0.16500
O1250       O  0.95347196  0.22403412  0.91118769    -0.60600
H1251       H  0.98031335  0.22905981  0.89849956     0.43500
H1252       H  0.75761199  0.27946841  0.84357910     0.43400
C1253       C  0.68027702  0.39390989  0.61880618    -0.05700
C1254       C  0.72600668  0.41034473  0.62210613    -0.33100
C1255       C  0.73959829  0.43435621  0.64674464     0.36200
C1256       C  0.70772309  0.44261229  0.66921737    -0.06000
C1257       C  0.66163779  0.42682756  0.66551744    -0.33000
C1258       C  0.64783808  0.40289804  0.64076519     0.36100
H1259       H  0.75265082  0.40490916  0.60640313     0.16400
O1260       O  0.78483714  0.44916484  0.64897662    -0.60500
H1261       H  0.63635645  0.43255448  0.68247491     0.16500
O1262       O  0.60323948  0.38756049  0.63930448    -0.60600
H1263       H  0.57601630  0.40076573  0.62558933     0.43500
H1264       H  0.77697276  0.46509250  0.63018261     0.43400
C1265       C  0.94459891  0.34122933  0.97615452    -0.05700
C1266       C  0.98335952  0.32682237  0.96482008    -0.33100
C1267       C  0.53302755  0.32673606  0.98698984     0.36200
C1268       C  0.54473289  0.34206244  0.52090261    -0.06000
C1269       C  0.50474646  0.35536019  0.53270035    -0.33000
C1270       C  0.95503028  0.35489626  0.51066039     0.36100
H1271       H  0.97558078  0.31654383  0.93798080     0.16400
O1272       O  0.56953857  0.31183836  0.97495234    -0.60500
H1273       H  0.51191873  0.36623305  0.55917394     0.16500
O1274       O  0.91723198  0.36878759  0.52243059    -0.60600
H1275       H  0.90999588  0.35545539  0.54158765     0.43500
H1276       H  0.56867779  0.32010148  0.95044008     0.43400
C1277       C  0.77384606  0.32611045  0.96938737    -0.05700
C1278       C  0.79743342  0.32127835  0.50633373    -0.33100
C1279       C  0.76870200  0.32026721  0.53239202     0.36200
C1280       C  0.71565016  0.32410112  0.52156932    -0.06000
C1281       C  0.69205133  0.32611688  0.98435348    -0.33000
C1282       C  0.72050323  0.32668751  0.95823302     0.36100
H1283       H  0.83839878  0.32043822  0.51536734     0.16400
O1284       O  0.79323961  0.31816237  0.56864681    -0.60500
H1285       H  0.65217844  0.33036747  0.97561677     0.16500
O1286       O  0.69605959  0.32871781  0.92189209    -0.60600
H1287       H  0.68050964  0.34889155  0.91876826     0.44700
H1288       H  0.78794496  0.29700785  0.57532622     0.43400
C1289       C  0.55596835  0.12085874  0.62355884    -0.05700
C1290       C  0.50905792  0.10547049  0.61905188    -0.33100
C1291       C  0.49465484  0.08208997  0.59371569     0.36200
C1292       C  0.52706242  0.07330982  0.57190598    -0.06000
C1293       C  0.57366970  0.08861105  0.57601875    -0.33000
C1294       C  0.58795994  0.11219552  0.60115226     0.36100
H1295       H  0.48205331  0.11123818  0.63431573     0.16400
O1296       O  0.94901796  0.06764566  0.59116448    -0.60500
H1297       H  0.59930642  0.08248902  0.55948766     0.16500
O1298       O  0.63386028  0.12644211  0.60396761    -0.60600
H1299       H  0.62826121  0.14043038  0.58301018     0.43500
H1300       H  0.92340447  0.08031330  0.57478380     0.43400
C1301       C  0.69379264  0.16733927  0.72428601    -0.05700
C1302       C  0.70203048  0.17749619  0.76045770    -0.33100
C1303       C  0.75070657  0.17716605  0.78406488     0.36200
C1304       C  0.79214828  0.16737903  0.77127294    -0.06000
C1305       C  0.78456667  0.15839654  0.73487250    -0.33000
C1306       C  0.73590415  0.15841522  0.71134477     0.36100
H1307       H  0.67058636  0.18486453  0.77080184     0.16400
O1308       O  0.75735996  0.18621912  0.81965740    -0.60500
H1309       H  0.81639398  0.15099150  0.72481542     0.16500
O1310       O  0.73004269  0.14981236  0.67567901    -0.60600
H1311       H  0.73040666  0.16880510  0.66205949     0.43500
H1312       H  0.75611946  0.16746020  0.83357675     0.43400
C1313       C  0.96304391  0.18643953  0.77518414    -0.05700
C1314       C  0.93992507  0.18919465  0.73795063    -0.33100
C1315       C  0.96948817  0.18955007  0.71244964     0.36200
C1316       C  0.52285709  0.18744839  0.72431809    -0.06000
C1317       C  0.54599023  0.18856799  0.76173840    -0.33000
C1318       C  0.51647956  0.18815351  0.78718302     0.36100
H1319       H  0.89892552  0.18847253  0.72837718     0.16400
O1320       O  0.94599530  0.19065692  0.67586458    -0.60500
H1321       H  0.58674409  0.18721052  0.77134821     0.16500
O1322       O  0.54026292  0.18703024  0.82367121    -0.60600
H1323       H  0.53648980  0.20741133  0.83330332     0.43500
H1324       H  0.92723201  0.17125905  0.66998262     0.43400
C1325       C  0.60624451  0.23025171  0.64077027    -0.05700
C1326       C  0.57361579  0.24174202  0.60903530    -0.33100
C1327       C  0.58546689  0.26848495  0.59337354     0.36200
C1328       C  0.63097855  0.28420239  0.60915442    -0.06000
C1329       C  0.66300783  0.27315966  0.64142809    -0.33000
C1330       C  0.65109371  0.24641213  0.65717196     0.36100
H1331       H  0.53851201  0.22996937  0.59632885     0.16400
O1332       O  0.55162962  0.27931148  0.56310764    -0.60500
H1333       H  0.69800055  0.28503088  0.65415616     0.16500
O1334       O  0.68443931  0.23589851  0.68788698    -0.60600
H1335       H  0.70915788  0.22383620  0.67882622     0.43500
H1336       H  0.52850160  0.29226976  0.57273562     0.43400
C1337       C  0.81480917  0.61452993  0.88043345    -0.05700
C1338       C  0.84460576  0.58852620  0.88190899    -0.33100
C1339       C  0.83119291  0.56579736  0.85555137     0.36200
C1340       C  0.78670411  0.56807416  0.82753470    -0.06000
C1341       C  0.75562522  0.59304631  0.82650323    -0.33000
C1342       C  0.76933894  0.61615203  0.85242869     0.36100
H1343       H  0.87903755  0.58521013  0.90267561     0.16400
O1344       O  0.86116713  0.54092962  0.85804970    -0.60500
H1345       H  0.72126152  0.59509261  0.80484128     0.16500
O1346       O  0.73909846  0.64096233  0.84919137    -0.60600
H1347       H  0.71048554  0.63489850  0.85963216     0.43500
H1348       H  0.88957895  0.54711924  0.84744616     0.43400
C1349       C  0.93103889  0.88843038  0.87580927    -0.05700
C1350       C  0.97838090  0.90342370  0.88198484    -0.33100
C1351       C  0.99082255  0.92750373  0.90654851     0.36200
C1352       C  0.95580476  0.93747789  0.92581002    -0.06000
C1353       C  0.90886634  0.92234277  0.92025425    -0.33000
C1354       C  0.89669860  0.89791712  0.89609866     0.36100
H1355       H  0.00715705  0.89654946  0.86874215     0.16400
O1356       O  0.53740407  0.94129450  0.91103631    -0.60500
H1357       H  0.88142066  0.92919435  0.93498043     0.16500
O1358       O  0.85051107  0.88371645  0.89206917    -0.60600
H1359       H  0.85531373  0.86934699  0.91263044     0.43500
H1360       H  0.56107787  0.92903343  0.92942426     0.43400
C1361       C  0.88512427  0.77860642  0.86006714    -0.05700
C1362       C  0.91904506  0.76700259  0.89110963    -0.33100
C1363       C  0.90809483  0.74010250  0.90691448     0.36200
C1364       C  0.86269811  0.72421170  0.89155549    -0.06000
C1365       C  0.82904400  0.73554962  0.86026076    -0.33000
C1366       C  0.83989540  0.76252971  0.84449263     0.36100
H1367       H  0.95433958  0.77883672  0.90316383     0.16400
O1368       O  0.94319911  0.72876993  0.93618473    -0.60500
H1369       H  0.79381778  0.72361952  0.84825615     0.16500
O1370       O  0.80465334  0.77385848  0.81529601    -0.60600
H1371       H  0.80474793  0.76014469  0.79459123     0.43500
H1372       H  0.94183129  0.74190610  0.95712265     0.43400
C1373       C  0.68232247  0.62367493  0.62894602    -0.05700
C1374       C  0.73235374  0.61284916  0.63803275    -0.33100
C1375       C  0.74631695  0.58875804  0.66190787     0.36200
C1376       C  0.71019335  0.57461202  0.67760459    -0.06000
C1377       C  0.66105593  0.58640103  0.67033490    -0.33000
C1378       C  0.64741381  0.61099054  0.64706392     0.36100
H1379       H  0.76200798  0.62331235  0.62783369     0.16400
O1380       O  0.79566782  0.57939004  0.66961689    -0.60500
H1381       H  0.63293786  0.57674622  0.68299326     0.16500
O1382       O  0.59947314  0.62224373  0.64197644    -0.60600
H1383       H  0.60218760  0.63759418  0.66143905     0.43500
H1384       H  0.81395874  0.59205816  0.69050929     0.43400
C1385       C  0.94946673  0.66747253  0.98067921    -0.05700
C1386       C  0.98907494  0.65156670  0.97124866    -0.33100
C1387       C  0.53817210  0.65169493  0.99392439     0.36200
C1388       C  0.54945925  0.66892538  0.52593687    -0.06000
C1389       C  0.51164695  0.68640756  0.53460280    -0.33000
C1390       C  0.96194052  0.68587013  0.51231047     0.36100
H1391       H  0.98237990  0.63874853  0.94612179     0.16400
O1392       O  0.57514067  0.63522162  0.98431111    -0.60500
H1393       H  0.52037482  0.69991903  0.55933017     0.16500
O1394       O  0.92587243  0.70230070  0.52288072    -0.60600
H1395       H  0.93427384  0.72365140  0.51912148     0.43500
H1396       H  0.57036610  0.61442012  0.99242675     0.43400
C1397       C  0.77387213  0.68406220  0.97470886    -0.05700
C1398       C  0.79754906  0.69064663  0.51125575    -0.33100
C1399       C  0.76928528  0.69273025  0.53741310     0.36200
C1400       C  0.71626254  0.68847668  0.52710296    -0.06000
C1401       C  0.69182684  0.68508704  0.99003352    -0.33000
C1402       C  0.72020480  0.68288544  0.96385480     0.36100
H1403       H  0.83827511  0.69168880  0.52029717     0.16400
O1404       O  0.79391241  0.69758032  0.57336092    -0.60500
H1405       H  0.65102312  0.68183065  0.98168372     0.16500
O1406       O  0.69519052  0.67783864  0.92808007    -0.60600
H1407       H  0.69367864  0.69779409  0.91623495     0.43500
H1408       H  0.81145708  0.67853755  0.58184397     0.43400
C1409       C  0.53458244  0.94514012  0.57756181    -0.05700
C1410       C  0.50250159  0.92052066  0.57853626    -0.33100
C1411       C  0.51823405  0.89710277  0.60307605     0.36200
C1412       C  0.56681657  0.89810882  0.62783865    -0.06000
C1413       C  0.59819588  0.92356833  0.62741485    -0.33000
C1414       C  0.58239538  0.94683678  0.60251511     0.36100
H1415       H  0.96566123  0.91885459  0.55926087     0.16400
O1416       O  0.98652443  0.87259761  0.60166080    -0.60500
H1417       H  0.63540657  0.92581953  0.64561542     0.16500
O1418       O  0.61413913  0.97111599  0.60270782    -0.60600
H1419       H  0.60491537  0.98592848  0.61954820     0.43500
H1420       H  0.95935199  0.87936186  0.61297956     0.43400
C1421       C  0.69629926  0.84415775  0.72816018    -0.05700
C1422       C  0.73157221  0.82441112  0.72006035    -0.33100
C1423       C  0.78056527  0.82238458  0.74311278     0.36200
C1424       C  0.79486044  0.84056568  0.77499067    -0.06000
C1425       C  0.75726910  0.85861486  0.78392529    -0.33000
C1426       C  0.70904145  0.86101260  0.76045959     0.36100
H1427       H  0.72160137  0.81117266  0.69512662     0.16400
O1428       O  0.81429649  0.80370258  0.73296302    -0.60500
H1429       H  0.76489687  0.87130051  0.80916627     0.16500
O1430       O  0.67433494  0.87971395  0.76951467    -0.60600
H1431       H  0.68106342  0.89977506  0.76013253     0.43500
H1432       H  0.80121624  0.78295867  0.73483966     0.43400
C1433       C  0.96348733  0.82466761  0.77257322    -0.05700
C1434       C  0.51502404  0.81707501  0.78284430    -0.33100
C1435       C  0.54572698  0.81986979  0.75818657     0.36200
C1436       C  0.52471796  0.83013369  0.72243346    -0.06000
C1437       C  0.97221722  0.83528989  0.71151809    -0.33000
C1438       C  0.94179439  0.83309367  0.73633451     0.36100
H1439       H  0.53237412  0.81117897  0.81092571     0.16400
O1440       O  0.59674164  0.81484937  0.77034908    -0.60500
H1441       H  0.95501624  0.84290964  0.68409159     0.16500
O1442       O  0.89279742  0.84311187  0.72634607    -0.60600
H1443       H  0.87612934  0.83205736  0.70361085     0.43500
H1444       H  0.61158027  0.83406188  0.78181008     0.43400
C1445       C  0.63182317  0.73219232  0.61109482    -0.05700
C1446       C  0.60397453  0.73326075  0.63773403    -0.33100
C1447       C  0.59166378  0.76078398  0.65107782     0.36200
C1448       C  0.60712164  0.78786787  0.63766411    -0.06000
C1449       C  0.63437544  0.78679162  0.61062331    -0.33000
C1450       C  0.64647320  0.75924918  0.59716522     0.36100
H1451       H  0.59115877  0.71263299  0.64801361     0.16400
O1452       O  0.56247628  0.76098739  0.67589995    -0.60500
H1453       H  0.64756483  0.80737090  0.60049526     0.16500
O1454       O  0.67521373  0.75902424  0.57206946    -0.60600
H1455       H  0.65243566  0.76613947  0.54896375     0.43500
H1456       H  0.58409218  0.75248138  0.69864864     0.43400
loop_ 
_geom_bond_atom_site_label_1 
_geom_bond_atom_site_label_2 
_geom_bond_distance 
_geom_bond_site_symmetry_2 
_ccdc_geom_bond_type 
C1            C2   1.531       .  S
C1            C7   1.536       .  S
C1            C5   1.544       .  S
C1          C320   1.527       .  S
C2            H9   1.086       .  S
C2            C3   1.366       .  D
C3            C4   1.543       .  S
C3          C344   1.491       .  S
C4            C8   1.537       .  S
C4            C6   1.531       .  S
C4           H10   1.107       .  S
C5           H11   1.082       .  S
C5            C6   1.364       .  D
C6          C329   1.470       .  S
C7           H12   1.086       .  S
C7            C8   1.365       .  D
C8          C356   1.482       .  S
C13          C14   1.533       .  S
C13          C19   1.539       .  S
C13          C17   1.541       .  S
C13         C281   1.531       .  S
C14          H21   1.086       .  S
C14          C15   1.367       .  D
C15          C16   1.539       .  S
C15         C353   1.481       .  S
C16          C20   1.539       .  S
C16          C18   1.532       .  S
C16          H22   1.110       .  S
C17          H23   1.086       .  S
C17          C18   1.364       .  D
C18         C296   1.471       .  S
C19          H24   1.082       .  S
C19          C20   1.363       .  D
C20         C308   1.481       .  S
C25          C26   1.536       .  S
C25          C31   1.531       .  S
C25          C29   1.535       .  S
C25         C257   1.532       .  S
C26          H33   1.082       .  S
C26          C27   1.362       .  D
C27          C28   1.546       .  S
C27         C341   1.481       .  S
C28          C32   1.541       .  S
C28          C30   1.548       .  S
C28          H34   1.104       .  S
C29          H35   1.084       .  S
C29          C30   1.373       .  D
C30         C332   1.504       .  S
C31          H36   1.086       .  S
C31          C32   1.364       .  D
C32         C269   1.484       .  S
C37          C38   1.535       .  S
C37          C43   1.529       .  S
C37          C41   1.542       .  S
C37         C245   1.534       .  S
C38          H45   1.087       .  S
C38          C39   1.362       .  D
C39          C40   1.538       .  S
C39         C272   1.481       .  S
C40          C44   1.553       .  S
C40          C42   1.547       .  S
C40          H46   1.106       .  S
C41          H47   1.077       .  S
C41          C42   1.369       .  D
C42         C293   1.504       .  S
C43          H48   1.086       .  S
C43          C44   1.367       .  D
C44         C305   1.492       .  S
C49          C50   1.535       .  S
C49          C55   1.535       .  S
C49          C53   1.536       .  S
C49         C197   1.532       .  S
C50          H57   1.086       .  S
C50          C51   1.368       .  D
C51          C52   1.542       .  S
C51         C233   1.486       .  S
C52          C56   1.543       .  S
C52          C54   1.544       .  S
C52          H58   1.110       .  S
C53          H59   1.086       .  S
C53          C54   1.367       .  D
C54         C209   1.488       .  S
C55          H60   1.079       .  S
C55          C56   1.361       .  D
C56         C224   1.484       .  S
C61          C62   1.536       .  S
C61          C67   1.535       .  S
C61          C65   1.539       .  S
C61         C161   1.535       .  S
C62          H69   1.080       .  S
C62          C63   1.361       .  D
C63          C64   1.548       .  S
C63         C188   1.485       .  S
C64          C68   1.544       .  S
C64          C66   1.544       .  S
C64          H70   1.108       .  S
C65          H71   1.086       .  S
C65          C66   1.371       .  D
C66         C176   1.497       .  S
C67          H72   1.086       .  S
C67          C68   1.365       .  D
C68         C236   1.486       .  S
C73          C74   1.538       .  S
C73          C79   1.541       .  S
C73          C77   1.536       .  S
C73         C137   1.532       .  S
C74          H81   1.085       .  S
C74          C75   1.369       .  D
C75          C76   1.539       .  S
C75         C149   1.483       .  S
C76          C80   1.536       .  S
C76          C78   1.535       .  S
C76          H82   1.110       .  S
C77          H83   1.086       .  S
C77          C78   1.362       .  D
C78         C212   1.473       .  S
C79          H84   1.079       .  S
C79          C80   1.361       .  D
C80         C221   1.480       .  S
C85          C86   1.535       .  S
C85          C91   1.534       .  S
C85          C89   1.546       .  S
C85         C128   1.533       .  S
C86          H93   1.085       .  S
C86          C87   1.368       .  D
C87          C88   1.539       .  S
C87         C185   1.484       .  S
C88          C92   1.540       .  S
C88          C90   1.532       .  S
C88          H94   1.111       .  S
C89          H95   1.081       .  S
C89          C90   1.362       .  D
C90         C173   1.471       .  S
C91          H96   1.086       .  S
C91          C92   1.366       .  D
C92         C152   1.483       .  S
O97        Ni105   1.916       .  S
O97         C107   1.281       .  A
O98        Ni105   1.921       .  S
O98         C108   1.283       .  A
O99        Ni105   1.912       .  S
O99         C109   1.281       .  A
O100       Ni105   1.910       .  S
O100        C110   1.280       .  A
O101       Ni106   1.921       .  S
O101        C110   1.282       .  A
O102       Ni106   1.917       .  S
O102        C109   1.282       .  A
O103       Ni106   1.913       .  S
O103        C108   1.281       .  A
O104       Ni106   1.913       .  S
O104        C107   1.280       .  A
Ni105      Ni106   2.387       .  S
C107        C248   1.469       .  S
C108        C164   1.487       .  S
C109        C284   1.486       .  S
C110        C125   1.475       .  S
O111       Ni483   1.907   1_554  S
O111        C121   1.280       .  A
O112       Ni119   1.911   1_565  S
O112        C850   1.280   1_455  A
O113       Ni119   1.907       .  S
O113        C851   1.280   1_455  A
O114       Ni483   1.908   1_564  S
O114        C124   1.279       .  A
O115       Ni120   1.912   1_565  S
O115        C852   1.280       .  A
O116       Ni484   1.915       .  S
O116        C123   1.281       .  A
O117       Ni484   1.919   1_565  S
O117        C122   1.283       .  A
O118       Ni120   1.917       .  S
O118        C849   1.282       .  A
Ni119       O475   1.907       .  S
Ni119       O478   1.908   1_545  S
Ni119     Ni1212   2.386   1_455  S
Ni120       O480   1.915   1_554  S
Ni120       O481   1.919   1_544  S
Ni120     Ni1211   2.386   1_554  S
C121        O846   1.282   1_455  A
C121        C200   1.482       .  S
C122        O840   1.280       .  A
C122        C260   1.486       .  S
C123        O841   1.280       .  A
C123        C140   1.479       .  S
C124        O843   1.280   1_455  A
C124        C317   1.468       .  S
C125        C126   1.400       .  A
C125        C130   1.405       .  A
C126        C127   1.401       .  A
C126        H131   1.084       .  S
C127        C128   1.418       .  A
C127        O132   1.373       .  S
C128        C129   1.411       .  A
C129        C130   1.398       .  A
C129        H133   1.076       .  S
C130        O134   1.372       .  S
O132        H136   0.992       .  S
O134        H135   0.992       .  S
C137        C138   1.411       .  A
C137        C142   1.415       .  A
C138        C139   1.394       .  A
C138        H143   1.074       .  S
C139        C140   1.407       .  A
C139        O872   1.373       .  S
C140        C141   1.404       .  A
C141        C142   1.401       .  A
C141        H145   1.083       .  S
C142        O146   1.372       .  S
O144        C867   1.373   1_455  S
O144        H148   0.993       .  S
O146        H147   0.992       .  S
C149        C150   1.404       .  A
C149        C154   1.410       .  A
C150        C151   1.397       .  A
C150        H155   1.082       .  S
C151        C152   1.410       .  A
C151        O156   1.372       .  S
C152        C153   1.403       .  A
C153        C154   1.397       .  A
C153        H157   1.081       .  S
C154        O158   1.372       .  S
O156        H160   0.992       .  S
O158        H159   0.992       .  S
C161        C162   1.413       .  A
C161        C166   1.415       .  A
C162        C163   1.399       .  A
C162        H167   1.075       .  S
C163        C164   1.409       .  A
C163        O168   1.372       .  S
C164        C165   1.405       .  A
C165        C166   1.400       .  A
C165        H169   1.083       .  S
C166        O170   1.373       .  S
O168        H172   0.991       .  S
O170        H171   0.992       .  S
C173        C174   1.396       .  A
C173        C542   1.400       .  A
C174        C903   1.402       .  A
C174        H179   1.083       .  S
C175        C902   1.402   1_455  A
C175        C540   1.414       .  A
C175        O180   1.369       .  S
C176        C177   1.411       .  A
C176        C539   1.414   1_554  A
C177        C906   1.401   1_455  A
C177        H181   1.083       .  S
C178        C537   1.400   1_554  A
C178        C905   1.401       .  A
C178        O182   1.372       .  S
O180        H184   0.993       .  S
O182        H183   0.992       .  S
C185        C190   1.408       .  A
C185        C550   1.403       .  A
C186        C187   1.403       .  A
C186        C549   1.403   1_554  A
C186        H191   1.083       .  S
C187        C188   1.412       .  A
C187        O192   1.372       .  S
C188        C553   1.398   1_554  A
C189        C190   1.399       .  A
C189        C552   1.398       .  A
C189        H193   1.072       .  S
C190        O194   1.374       .  S
O192        H196   0.992       .  S
O194        H195   0.992       .  S
C197        C198   1.412       .  A
C197        C202   1.414       .  A
C198        C199   1.397   1_455  A
C198        H203   1.075   1_455  S
C199        C200   1.408   1_655  A
C199        O932   1.372       .  S
C200        C201   1.405       .  A
C201        C202   1.398       .  A
C201        H205   1.083       .  S
C202        O206   1.373       .  S
O204        C927   1.372       .  S
O204        H208   0.992       .  S
O206        H207   0.991       .  S
C209        C210   1.403       .  A
C209        C214   1.415       .  A
C210        C211   1.401       .  A
C210        H215   1.080       .  S
C211        C212   1.407       .  A
C211        O216   1.372       .  S
C212        C213   1.397       .  A
C213        C214   1.399       .  A
C213        H217   1.084       .  S
C214        O218   1.371       .  S
O216        H220   0.992       .  S
O218        H219   0.991       .  S
C221        C222   1.398       .  A
C221        C954   1.412       .  A
C222        C223   1.401       .  A
C222        H227   1.084       .  S
C223        C952   1.414       .  A
C223        O228   1.374       .  S
C224        C225   1.399       .  A
C224        C951   1.414   1_455  A
C225        C226   1.399       .  A
C225        H229   1.080       .  S
C226        C949   1.412   1_455  A
C226        O230   1.372       .  S
O228        H232   0.992       .  S
O230        H231   0.992       .  S
C233        C234   1.405       .  A
C233        C238   1.410       .  A
C234        C235   1.399       .  A
C234        H239   1.083       .  S
C235        C236   1.409       .  A
C235        O240   1.371       .  S
C236        C237   1.405       .  A
C237        C238   1.401       .  A
C237        H241   1.083       .  S
C238        O242   1.371       .  S
O240        H244   0.992       .  S
O242        H243   0.991       .  S
C245        C246   1.414       .  A
C245        C250   1.417       .  A
C246        C247   1.398       .  A
C246        H251   1.074       .  S
C247        C248   1.401       .  A
C247        O252   1.372       .  S
C248        C249   1.399       .  A
C249        C250   1.400       .  A
C249        H253   1.084       .  S
C250        O254   1.372       .  S
O252        H256   0.992       .  S
O254        H255   0.991       .  S
C257        C258   1.409       .  A
C257        C262   1.417       .  A
C258        C259   1.398       .  A
C258        H263   1.076       .  S
C259        C260   1.411       .  A
C259        O992   1.372       .  S
C260        C261   1.404       .  A
C261        C262   1.400       .  A
C261        H265   1.083       .  S
C262        O266   1.373       .  S
O264        C987   1.372   1_455  S
O264        H268   0.992       .  S
O266        H267   0.992       .  S
C269        C270   1.404       .  A
C269        C274   1.409       .  A
C270        C271   1.399       .  A
C270        H275   1.084       .  S
C271        C272   1.407       .  A
C271        O276   1.371       .  S
C272        C273   1.403       .  A
C273        C274   1.401       .  A
C273        H277   1.084       .  S
C274        O278   1.371       .  S
O276        H280   0.992       .  S
O278        H279   0.992       .  S
C281        C282   1.410       .  A
C281        C286   1.415       .  A
C282        C283   1.397       .  A
C282        H287   1.078       .  S
C283        C284   1.411       .  A
C283        O288   1.372       .  S
C284        C285   1.405       .  A
C285        C286   1.400       .  A
C285        H289   1.083       .  S
C286        O290   1.372       .  S
O288        H292   0.992       .  S
O290        H291   0.991       .  S
C293        C294   1.414       .  A
C293        C662   1.415       .  A
C294       C1023   1.396       .  A
C294        H299   1.082       .  S
C295       C1022   1.396   1_455  A
C295        C660   1.397       .  A
C295        O300   1.372       .  S
C296        C297   1.400       .  A
C296        C659   1.397   1_554  A
C297       C1026   1.404   1_455  A
C297        H301   1.084       .  S
C298        C657   1.415   1_554  A
C298       C1025   1.404       .  A
C298        O302   1.368       .  S
O300        H304   0.992       .  S
O302        H303   0.992       .  S
C305        C310   1.415       .  A
C305        C670   1.401       .  A
C306        C307   1.400       .  A
C306        C669   1.401   1_554  A
C306        H311   1.076       .  S
C307        C308   1.408       .  A
C307        O312   1.373       .  S
C308        C673   1.401   1_554  A
C309        C310   1.403       .  A
C309        C672   1.401       .  A
C309        H313   1.084       .  S
C310        O314   1.371       .  S
O312        H316   0.992       .  S
O314        H315   0.991       .  S
C317        C318   1.397       .  A
C317        C322   1.405       .  A
C318        C319   1.395       .  A
C318       H1051   1.084   1_455  S
C319        C320   1.417       .  A
C319       O1052   1.373   1_455  S
C320        C321   1.411       .  A
C321        C322   1.399       .  A
C321        H325   1.076       .  S
C322        O326   1.372       .  S
H323       C1046   1.084       .  S
O324       C1047   1.373       .  S
O324        H328   0.992       .  S
O326        H327   0.992       .  S
C329        C330   1.398       .  A
C329        C334   1.397       .  A
C330        C331   1.404       .  A
C330        H335   1.084       .  S
C331        C332   1.419       .  A
C331        O336   1.369       .  S
C332        C333   1.413       .  A
C333        C334   1.395       .  A
C333        H337   1.081       .  S
C334        O338   1.372       .  S
O336        H340   0.993       .  S
O338        H339   0.992       .  S
C341        C346   1.404       .  A
C341       C1070   1.405       .  A
C342        C343   1.403       .  A
C342       C1069   1.405   1_455  A
C342        H347   1.084       .  S
C343        C344   1.410       .  A
C343        O348   1.371       .  S
C344       C1073   1.407   1_455  A
C345        C346   1.400       .  A
C345       C1072   1.407       .  A
C345        H349   1.083       .  S
C346        O350   1.373       .  S
O348        H352   0.991       .  S
O350        H351   0.992       .  S
C353        C354   1.405       .  A
C353        C358   1.406       .  A
C354        C355   1.399       .  A
C354        H359   1.084       .  S
C355        C356   1.407       .  A
C355        O360   1.373       .  S
C356        C357   1.406       .  A
C357        C358   1.400       .  A
C357        H361   1.083       .  S
C358        O362   1.372       .  S
O360        H364   0.992       .  S
O362        H363   0.992       .  S
C365        C366   1.531       .  S
C365        C371   1.536       .  S
C365        C369   1.544       .  S
C365        C684   1.527       .  S
C366        H373   1.086       .  S
C366        C367   1.366       .  D
C367        C368   1.543       .  S
C367        C708   1.491       .  S
C368        C372   1.537       .  S
C368        C370   1.531       .  S
C368        H374   1.107       .  S
C369        H375   1.082       .  S
C369        C370   1.364       .  D
C370        C693   1.470       .  S
C371        H376   1.086       .  S
C371        C372   1.365       .  D
C372        C720   1.482       .  S
C377        C378   1.533       .  S
C377        C383   1.539       .  S
C377        C381   1.541       .  S
C377        C645   1.531       .  S
C378        H385   1.086       .  S
C378        C379   1.367       .  D
C379        C380   1.539       .  S
C379        C717   1.481       .  S
C380        C384   1.539       .  S
C380        C382   1.532       .  S
C380        H386   1.110       .  S
C381        H387   1.086       .  S
C381        C382   1.364       .  D
C382        C660   1.471       .  S
C383        H388   1.082       .  S
C383        C384   1.363       .  D
C384        C672   1.481       .  S
C389        C390   1.536       .  S
C389        C395   1.531       .  S
C389        C393   1.535       .  S
C389        C621   1.532       .  S
C390        H397   1.082       .  S
C390        C391   1.362       .  D
C391        C392   1.546       .  S
C391        C705   1.481       .  S
C392        C396   1.541       .  S
C392        C394   1.548       .  S
C392        H398   1.104       .  S
C393        H399   1.084       .  S
C393        C394   1.373       .  D
C394        C696   1.504       .  S
C395        H400   1.086       .  S
C395        C396   1.364       .  D
C396        C633   1.484       .  S
C401        C402   1.535       .  S
C401        C407   1.529       .  S
C401        C405   1.542       .  S
C401        C609   1.534       .  S
C402        H409   1.087       .  S
C402        C403   1.362       .  D
C403        C404   1.538       .  S
C403        C636   1.481       .  S
C404        C408   1.553       .  S
C404        C406   1.547       .  S
C404        H410   1.106       .  S
C405        H411   1.077       .  S
C405        C406   1.369       .  D
C406        C657   1.504       .  S
C407        H412   1.086       .  S
C407        C408   1.367       .  D
C408        C669   1.492       .  S
C413        C414   1.535       .  S
C413        C419   1.535       .  S
C413        C417   1.536       .  S
C413        C561   1.532       .  S
C414        H421   1.086       .  S
C414        C415   1.368       .  D
C415        C416   1.542       .  S
C415        C597   1.486       .  S
C416        C420   1.543       .  S
C416        C418   1.544       .  S
C416        H422   1.110       .  S
C417        H423   1.086       .  S
C417        C418   1.367       .  D
C418        C573   1.488       .  S
C419        H424   1.079       .  S
C419        C420   1.361       .  D
C420        C588   1.484       .  S
C425        C426   1.536       .  S
C425        C431   1.535       .  S
C425        C429   1.539       .  S
C425        C525   1.535       .  S
C426        H433   1.080       .  S
C426        C427   1.361       .  D
C427        C428   1.548       .  S
C427        C552   1.485       .  S
C428        C432   1.544       .  S
C428        C430   1.544       .  S
C428        H434   1.108       .  S
C429        H435   1.086       .  S
C429        C430   1.371       .  D
C430        C540   1.497       .  S
C431        H436   1.086       .  S
C431        C432   1.365       .  D
C432        C600   1.486       .  S
C437        C438   1.538       .  S
C437        C443   1.541       .  S
C437        C441   1.536       .  S
C437        C501   1.532       .  S
C438        H445   1.085       .  S
C438        C439   1.369       .  D
C439        C440   1.539       .  S
C439        C513   1.483       .  S
C440        C444   1.536       .  S
C440        C442   1.535       .  S
C440        H446   1.110       .  S
C441        H447   1.086       .  S
C441        C442   1.362       .  D
C442        C576   1.473       .  S
C443        H448   1.079       .  S
C443        C444   1.361       .  D
C444        C585   1.480       .  S
C449        C450   1.535       .  S
C449        C455   1.534       .  S
C449        C453   1.546       .  S
C449        C492   1.533       .  S
C450        H457   1.085       .  S
C450        C451   1.368       .  D
C451        C452   1.539       .  S
C451        C549   1.484       .  S
C452        C456   1.540       .  S
C452        C454   1.532       .  S
C452        H458   1.111       .  S
C453        H459   1.081       .  S
C453        C454   1.362       .  D
C454        C537   1.471       .  S
C455        H460   1.086       .  S
C455        C456   1.366       .  D
C456        C516   1.483       .  S
O461       Ni469   1.916       .  S
O461        C471   1.281       .  A
O462       Ni469   1.921       .  S
O462        C472   1.283       .  A
O463       Ni469   1.912       .  S
O463        C473   1.281       .  A
O464       Ni469   1.910       .  S
O464        C474   1.280       .  A
O465       Ni470   1.921       .  S
O465        C474   1.282       .  A
O466       Ni470   1.917       .  S
O466        C473   1.282       .  A
O467       Ni470   1.913       .  S
O467        C472   1.281       .  A
O468       Ni470   1.913       .  S
O468        C471   1.280       .  A
Ni469      Ni470   2.387       .  S
C471        C612   1.469       .  S
C472        C528   1.487       .  S
C473        C648   1.486       .  S
C474        C489   1.475       .  S
O475        C485   1.280       .  A
O476       Ni483   1.911   1_565  S
O476       C1214   1.280   1_455  A
O477       Ni483   1.907       .  S
O477       C1215   1.280   1_455  A
O478        C488   1.279       .  A
O479       Ni484   1.912   1_565  S
O479       C1216   1.280       .  A
O480        C487   1.281       .  A
O481        C486   1.283       .  A
O482       Ni484   1.917       .  S
O482       C1213   1.282       .  A
Ni483      Ni848   2.386   1_456  S
Ni484      Ni847   2.386       .  S
C485       O1210   1.282   1_455  A
C485        C564   1.482       .  S
C486       O1204   1.280       .  A
C486        C624   1.486       .  S
C487       O1205   1.280       .  A
C487        C504   1.479       .  S
C488       O1207   1.280   1_455  A
C488        C681   1.468       .  S
C489        C490   1.400       .  A
C489        C494   1.405       .  A
C490        C491   1.401       .  A
C490        H495   1.084       .  S
C491        C492   1.418       .  A
C491        O496   1.373       .  S
C492        C493   1.411       .  A
C493        C494   1.398       .  A
C493        H497   1.076       .  S
C494        O498   1.372       .  S
O496        H500   0.992       .  S
O498        H499   0.992       .  S
C501        C502   1.411       .  A
C501        C506   1.415       .  A
C502        C503   1.394       .  A
C502        H507   1.074       .  S
C503        C504   1.407       .  A
C503       O1236   1.373       .  S
C504        C505   1.404       .  A
C505        C506   1.401       .  A
C505        H509   1.083       .  S
C506        O510   1.372       .  S
O508       C1231   1.373   1_455  S
O508        H512   0.993       .  S
O510        H511   0.992       .  S
C513        C514   1.404       .  A
C513        C518   1.410       .  A
C514        C515   1.397       .  A
C514        H519   1.082       .  S
C515        C516   1.410       .  A
C515        O520   1.372       .  S
C516        C517   1.403       .  A
C517        C518   1.397       .  A
C517        H521   1.081       .  S
C518        O522   1.372       .  S
O520        H524   0.992       .  S
O522        H523   0.992       .  S
C525        C526   1.413       .  A
C525        C530   1.415       .  A
C526        C527   1.399       .  A
C526        H531   1.075       .  S
C527        C528   1.409       .  A
C527        O532   1.372       .  S
C528        C529   1.405       .  A
C529        C530   1.400       .  A
C529        H533   1.083       .  S
C530        O534   1.373       .  S
O532        H536   0.991       .  S
O534        H535   0.992       .  S
C537        C538   1.396       .  A
C538       C1267   1.402       .  A
C538        H543   1.083       .  S
C539       C1266   1.402   1_455  A
C539        O544   1.369       .  S
C540        C541   1.411       .  A
C541       C1270   1.401   1_455  A
C541        H545   1.083       .  S
C542       C1269   1.401       .  A
C542        O546   1.372       .  S
O544        H548   0.993       .  S
O546        H547   0.992       .  S
C549        C554   1.408       .  A
C550        C551   1.403       .  A
C550        H555   1.083       .  S
C551        C552   1.412       .  A
C551        O556   1.372       .  S
C553        C554   1.399       .  A
C553        H557   1.072       .  S
C554        O558   1.374       .  S
O556        H560   0.992       .  S
O558        H559   0.992       .  S
C561        C562   1.412       .  A
C561        C566   1.414       .  A
C562        C563   1.397   1_455  A
C562        H567   1.075   1_455  S
C563        C564   1.408   1_655  A
C563       O1296   1.372       .  S
C564        C565   1.405       .  A
C565        C566   1.398       .  A
C565        H569   1.083       .  S
C566        O570   1.373       .  S
O568       C1291   1.372       .  S
O568        H572   0.992       .  S
O570        H571   0.991       .  S
C573        C574   1.403       .  A
C573        C578   1.415       .  A
C574        C575   1.401       .  A
C574        H579   1.080       .  S
C575        C576   1.407       .  A
C575        O580   1.372       .  S
C576        C577   1.397       .  A
C577        C578   1.399       .  A
C577        H581   1.084       .  S
C578        O582   1.371       .  S
O580        H584   0.992       .  S
O582        H583   0.991       .  S
C585        C586   1.398       .  A
C585       C1318   1.412       .  A
C586        C587   1.401       .  A
C586        H591   1.084       .  S
C587       C1316   1.414       .  A
C587        O592   1.373       .  S
C588       C1315   1.414   1_455  A
C588        C589   1.399       .  A
C589        C590   1.399       .  A
C589        H593   1.080       .  S
C590       C1313   1.412   1_455  A
C590        O594   1.372       .  S
O592        H596   0.992       .  S
O594        H595   0.992       .  S
C597        C598   1.405       .  A
C597        C602   1.410       .  A
C598        C599   1.399       .  A
C598        H603   1.083       .  S
C599        C600   1.409       .  A
C599        O604   1.371       .  S
C600        C601   1.405       .  A
C601        C602   1.401       .  A
C601        H605   1.083       .  S
C602        O606   1.371       .  S
O604        H608   0.992       .  S
O606        H607   0.991       .  S
C609        C610   1.414       .  A
C609        C614   1.417       .  A
C610        C611   1.398       .  A
C610        H615   1.074       .  S
C611        C612   1.401       .  A
C611        O616   1.372       .  S
C612        C613   1.399       .  A
C613        C614   1.400       .  A
C613        H617   1.084       .  S
C614        O618   1.372       .  S
O616        H620   0.992       .  S
O618        H619   0.991       .  S
C621        C622   1.409       .  A
C621        C626   1.417       .  A
C622        C623   1.398       .  A
C622        H627   1.076       .  S
C623        C624   1.411       .  A
C623       O1356   1.372       .  S
C624        C625   1.404       .  A
C625        C626   1.400       .  A
C625        H629   1.083       .  S
C626        O630   1.373       .  S
O628       C1351   1.372   1_455  S
O628        H632   0.992       .  S
O630        H631   0.992       .  S
C633        C634   1.404       .  A
C633        C638   1.409       .  A
C634        C635   1.399       .  A
C634        H639   1.084       .  S
C635        C636   1.407       .  A
C635        O640   1.371       .  S
C636        C637   1.403       .  A
C637        C638   1.401       .  A
C637        H641   1.084       .  S
C638        O642   1.371       .  S
O640        H644   0.992       .  S
O642        H643   0.992       .  S
C645        C646   1.410       .  A
C645        C650   1.415       .  A
C646        C647   1.397       .  A
C646        H651   1.078       .  S
C647        C648   1.411       .  A
C647        O652   1.372       .  S
C648        C649   1.405       .  A
C649        C650   1.400       .  A
C649        H653   1.083       .  S
C650        O654   1.372       .  S
O652        H656   0.992       .  S
O654        H655   0.991       .  S
C657        C658   1.414       .  A
C658       C1387   1.396       .  A
C658        H663   1.082       .  S
C659       C1386   1.396   1_455  A
C659        O664   1.372       .  S
C660        C661   1.400       .  A
C661       C1390   1.404   1_455  A
C661        H665   1.084       .  S
C662       C1389   1.404       .  A
C662        O666   1.368       .  S
O664        H668   0.992       .  S
O666        H667   0.992       .  S
C669        C674   1.415       .  A
C670        C671   1.400       .  A
C670        H675   1.076       .  S
C671        C672   1.408       .  A
C671        O676   1.373       .  S
C673        C674   1.403       .  A
C673        H677   1.084       .  S
C674        O678   1.371       .  S
O676        H680   0.992       .  S
O678        H679   0.991       .  S
C681        C682   1.397       .  A
C681        C686   1.405       .  A
C682        C683   1.395       .  A
C682       H1415   1.084   1_455  S
C683        C684   1.417       .  A
C683       O1416   1.373   1_455  S
C684        C685   1.411       .  A
C685        C686   1.399       .  A
C685        H689   1.076       .  S
C686        O690   1.372       .  S
H687       C1410   1.084       .  S
O688       C1411   1.373       .  S
O688        H692   0.992       .  S
O690        H691   0.992       .  S
C693        C694   1.398       .  A
C693        C698   1.397       .  A
C694        C695   1.404       .  A
C694        H699   1.084       .  S
C695        C696   1.419       .  A
C695        O700   1.369       .  S
C696        C697   1.413       .  A
C697        C698   1.395       .  A
C697        H701   1.081       .  S
C698        O702   1.372       .  S
O700        H704   0.993       .  S
O702        H703   0.992       .  S
C705       C1434   1.405       .  A
C705        C710   1.404       .  A
C706       C1433   1.405   1_455  A
C706        C707   1.403       .  A
C706        H711   1.084       .  S
C707        C708   1.410       .  A
C707        O712   1.371       .  S
C708       C1437   1.407   1_455  A
C709       C1436   1.407       .  A
C709        C710   1.400       .  A
C709        H713   1.083       .  S
C710        O714   1.373       .  S
O712        H716   0.991       .  S
O714        H715   0.992       .  S
C717        C718   1.405       .  A
C717        C722   1.406       .  A
C718        C719   1.399       .  A
C718        H723   1.084       .  S
C719        C720   1.407       .  A
C719        O724   1.373       .  S
C720        C721   1.406       .  A
C721        C722   1.400       .  A
C721        H725   1.083       .  S
C722        O726   1.372       .  S
O724        H728   0.992       .  S
O726        H727   0.992       .  S
C729        C730   1.531       .  S
C729        C735   1.536       .  S
C729        C733   1.544       .  S
C729       C1048   1.527       .  S
C730        H737   1.086       .  S
C730        C731   1.366       .  D
C731        C732   1.543       .  S
C731       C1072   1.491       .  S
C732        C736   1.537       .  S
C732        C734   1.531       .  S
C732        H738   1.107       .  S
C733        H739   1.082       .  S
C733        C734   1.364       .  D
C734       C1057   1.470       .  S
C735        H740   1.086       .  S
C735        C736   1.365       .  D
C736       C1084   1.482       .  S
C741        C742   1.533       .  S
C741        C747   1.539       .  S
C741        C745   1.541       .  S
C741       C1009   1.531       .  S
C742        H749   1.086       .  S
C742        C743   1.367       .  D
C743        C744   1.539       .  S
C743       C1081   1.481       .  S
C744        C748   1.539       .  S
C744        C746   1.532       .  S
C744        H750   1.110       .  S
C745        H751   1.086       .  S
C745        C746   1.364       .  D
C746       C1024   1.471       .  S
C747        H752   1.082       .  S
C747        C748   1.363       .  D
C748       C1036   1.481       .  S
C753        C754   1.536       .  S
C753        C759   1.531       .  S
C753        C757   1.535       .  S
C753        C985   1.532       .  S
C754        H761   1.082       .  S
C754        C755   1.362       .  D
C755        C756   1.546       .  S
C755       C1069   1.481       .  S
C756        C760   1.541       .  S
C756        C758   1.548       .  S
C756        H762   1.104       .  S
C757        H763   1.084       .  S
C757        C758   1.373       .  D
C758       C1060   1.504       .  S
C759        H764   1.086       .  S
C759        C760   1.364       .  D
C760        C997   1.484       .  S
C765        C766   1.535       .  S
C765        C771   1.529       .  S
C765        C769   1.542       .  S
C765        C973   1.534       .  S
C766        H773   1.087       .  S
C766        C767   1.362       .  D
C767        C768   1.538       .  S
C767       C1000   1.481       .  S
C768        C772   1.553       .  S
C768        C770   1.547       .  S
C768        H774   1.106       .  S
C769        H775   1.077       .  S
C769        C770   1.369       .  D
C770       C1021   1.504       .  S
C771        H776   1.086       .  S
C771        C772   1.367       .  D
C772       C1033   1.492       .  S
C777        C778   1.535       .  S
C777        C783   1.535       .  S
C777        C781   1.536       .  S
C777        C925   1.532       .  S
C778        H785   1.086       .  S
C778        C779   1.368       .  D
C779        C780   1.542       .  S
C779        C961   1.486       .  S
C780        C784   1.543       .  S
C780        C782   1.544       .  S
C780        H786   1.110       .  S
C781        H787   1.086       .  S
C781        C782   1.367       .  D
C782        C937   1.488       .  S
C783        H788   1.079       .  S
C783        C784   1.361       .  D
C784        C952   1.484       .  S
C789        C790   1.537       .  S
C789        C795   1.535       .  S
C789        C793   1.539       .  S
C789        C889   1.535       .  S
C790        H797   1.080       .  S
C790        C791   1.361       .  D
C791        C792   1.548       .  S
C791        C916   1.485       .  S
C792        C796   1.544       .  S
C792        C794   1.544       .  S
C792        H798   1.108       .  S
C793        H799   1.086       .  S
C793        C794   1.371       .  D
C794        C904   1.497       .  S
C795        H800   1.086       .  S
C795        C796   1.365       .  D
C796        C964   1.486       .  S
C801        C802   1.538       .  S
C801        C807   1.541       .  S
C801        C805   1.536       .  S
C801        C865   1.532       .  S
C802        H809   1.085       .  S
C802        C803   1.369       .  D
C803        C804   1.539       .  S
C803        C877   1.483       .  S
C804        C808   1.536       .  S
C804        C806   1.535       .  S
C804        H810   1.110       .  S
C805        H811   1.086       .  S
C805        C806   1.362       .  D
C806        C940   1.473       .  S
C807        H812   1.079       .  S
C807        C808   1.361       .  D
C808        C949   1.480       .  S
C813        C814   1.535       .  S
C813        C819   1.534       .  S
C813        C817   1.546       .  S
C813        C856   1.533       .  S
C814        H821   1.085       .  S
C814        C815   1.368       .  D
C815        C816   1.539       .  S
C815        C913   1.484       .  S
C816        C820   1.540       .  S
C816        C818   1.532       .  S
C816        H822   1.111       .  S
C817        H823   1.081       .  S
C817        C818   1.362       .  D
C818        C901   1.471       .  S
C819        H824   1.086       .  S
C819        C820   1.366       .  D
C820        C880   1.483       .  S
O825       Ni833   1.916       .  S
O825        C835   1.281       .  A
O826       Ni833   1.921       .  S
O826        C836   1.283       .  A
O827       Ni833   1.912       .  S
O827        C837   1.281       .  A
O828       Ni833   1.910       .  S
O828        C838   1.280       .  A
O829       Ni834   1.921       .  S
O829        C838   1.282       .  A
O830       Ni834   1.917       .  S
O830        C837   1.282       .  A
O831       Ni834   1.913       .  S
O831        C836   1.281       .  A
O832       Ni834   1.913       .  S
O832        C835   1.280       .  A
Ni833      Ni834   2.387       .  S
C835        C976   1.469       .  S
C836        C892   1.487       .  S
C837       C1012   1.486       .  S
C838        C853   1.475       .  S
O839      Ni1211   1.907   1_554  S
O839        C849   1.280       .  A
O840       Ni847   1.911   1_565  S
O841       Ni847   1.907       .  S
O842      Ni1211   1.908   1_564  S
O842        C852   1.279       .  A
O843       Ni848   1.912   1_565  S
O844      Ni1212   1.915       .  S
O844        C851   1.281       .  A
O845      Ni1212   1.919   1_565  S
O845        C850   1.283       .  A
O846       Ni848   1.917       .  S
Ni847      O1203   1.907       .  S
Ni847      O1206   1.908   1_545  S
Ni848      O1208   1.915   1_554  S
Ni848      O1209   1.919   1_544  S
C849        C928   1.482       .  S
C850        C988   1.486       .  S
C851        C868   1.479       .  S
C852       C1045   1.468       .  S
C853        C854   1.400       .  A
C853        C858   1.405       .  A
C854        C855   1.401       .  A
C854        H859   1.084       .  S
C855        C856   1.418       .  A
C855        O860   1.373       .  S
C856        C857   1.411       .  A
C857        C858   1.398       .  A
C857        H861   1.076       .  S
C858        O862   1.372       .  S
O860        H864   0.992       .  S
O862        H863   0.992       .  S
C865        C866   1.411       .  A
C865        C870   1.415       .  A
C866        C867   1.394       .  A
C866        H871   1.074       .  S
C867        C868   1.407       .  A
C868        C869   1.404       .  A
C869        C870   1.401       .  A
C869        H873   1.083       .  S
C870        O874   1.372       .  S
O872        H876   0.993       .  S
O874        H875   0.992       .  S
C877        C878   1.404       .  A
C877        C882   1.410       .  A
C878        C879   1.397       .  A
C878        H883   1.082       .  S
C879        C880   1.410       .  A
C879        O884   1.372       .  S
C880        C881   1.403       .  A
C881        C882   1.397       .  A
C881        H885   1.081       .  S
C882        O886   1.372       .  S
O884        H888   0.992       .  S
O886        H887   0.992       .  S
C889        C890   1.413       .  A
C889        C894   1.415       .  A
C890        C891   1.399       .  A
C890        H895   1.075       .  S
C891        C892   1.409       .  A
C891        O896   1.372       .  S
C892        C893   1.405       .  A
C893        C894   1.400       .  A
C893        H897   1.083       .  S
C894        O898   1.373       .  S
O896        H900   0.991       .  S
O898        H899   0.992       .  S
C901        C902   1.396       .  A
C901       C1270   1.400       .  A
C902        H907   1.083       .  S
C903       C1268   1.414       .  A
C903        O908   1.369       .  S
C904       C1267   1.414   1_554  A
C904        C905   1.411       .  A
C905        H909   1.083       .  S
C906       C1265   1.400   1_554  A
C906        O910   1.372       .  S
O908        H912   0.993       .  S
O910        H911   0.992       .  S
C913       C1278   1.403       .  A
C913        C918   1.408       .  A
C914       C1277   1.403   1_554  A
C914        C915   1.403       .  A
C914        H919   1.083       .  S
C915        C916   1.412       .  A
C915        O920   1.372       .  S
C916       C1281   1.398   1_554  A
C917       C1280   1.398       .  A
C917        C918   1.399       .  A
C917        H921   1.072       .  S
C918        O922   1.374       .  S
O920        H924   0.992       .  S
O922        H923   0.992       .  S
C925        C926   1.412       .  A
C925        C930   1.414       .  A
C926        C927   1.397       .  A
C926        H931   1.075       .  S
C927        C928   1.408       .  A
C928        C929   1.405       .  A
C929        C930   1.398       .  A
C929        H933   1.083       .  S
C930        O934   1.373       .  S
O932        H936   0.992       .  S
O934        H935   0.991       .  S
C937        C938   1.403       .  A
C937        C942   1.415       .  A
C938        C939   1.401       .  A
C938        H943   1.080       .  S
C939        C940   1.407       .  A
C939        O944   1.372       .  S
C940        C941   1.397       .  A
C941        C942   1.399       .  A
C941        H945   1.084       .  S
C942        O946   1.371       .  S
O944        H948   0.992       .  S
O946        H947   0.991       .  S
C949        C950   1.398       .  A
C950        C951   1.402       .  A
C950        H955   1.084       .  S
C951        O956   1.373       .  S
C952        C953   1.399       .  A
C953        C954   1.399       .  A
C953        H957   1.080       .  S
C954        O958   1.372       .  S
O956        H960   0.992       .  S
O958        H959   0.992       .  S
C961        C962   1.405       .  A
C961        C966   1.410       .  A
C962        C963   1.399       .  A
C962        H967   1.083       .  S
C963        C964   1.409       .  A
C963        O968   1.371       .  S
C964        C965   1.405       .  A
C965        C966   1.401       .  A
C965        H969   1.083       .  S
C966        O970   1.371       .  S
O968        H972   0.992       .  S
O970        H971   0.991       .  S
C973        C974   1.414       .  A
C973        C978   1.417       .  A
C974        C975   1.398       .  A
C974        H979   1.074       .  S
C975        C976   1.401       .  A
C975        O980   1.372       .  S
C976        C977   1.399       .  A
C977        C978   1.400       .  A
C977        H981   1.084       .  S
C978        O982   1.372       .  S
O980        H984   0.992       .  S
O982        H983   0.991       .  S
C985        C986   1.409       .  A
C985        C990   1.417       .  A
C986        C987   1.398       .  A
C986        H991   1.076   1_655  S
C987        C988   1.411       .  A
C988        C989   1.404       .  A
C989        C990   1.400       .  A
C989        H993   1.083       .  S
C990        O994   1.373       .  S
O992        H996   0.992       .  S
O994        H995   0.992       .  S
C997        C998   1.404       .  A
C997       C1002   1.409       .  A
C998        C999   1.399       .  A
C998       H1003   1.084       .  S
C999       C1000   1.407       .  A
C999       O1004   1.371       .  S
C1000      C1001   1.403       .  A
C1001      C1002   1.401       .  A
C1001      H1005   1.084       .  S
C1002      O1006   1.371       .  S
O1004      H1008   0.992       .  S
O1006      H1007   0.992       .  S
C1009      C1010   1.410       .  A
C1009      C1014   1.415       .  A
C1010      C1011   1.397       .  A
C1010      H1015   1.078       .  S
C1011      C1012   1.411       .  A
C1011      O1016   1.372       .  S
C1012      C1013   1.405       .  A
C1013      C1014   1.400       .  A
C1013      H1017   1.083       .  S
C1014      O1018   1.372       .  S
O1016      H1020   0.992       .  S
O1018      H1019   0.991       .  S
C1021      C1022   1.414       .  A
C1021      C1390   1.415       .  A
C1022      H1027   1.082       .  S
C1023      C1388   1.397       .  A
C1023      O1028   1.372       .  S
C1024      C1387   1.397   1_554  A
C1024      C1025   1.400       .  A
C1025      H1029   1.084       .  S
C1026      C1385   1.415   1_554  A
C1026      O1030   1.368       .  S
O1028      H1032   0.992       .  S
O1030      H1031   0.992       .  S
C1033      C1398   1.401       .  A
C1033      C1038   1.415       .  A
C1034      C1397   1.401   1_554  A
C1034      C1035   1.400       .  A
C1034      H1039   1.076       .  S
C1035      C1036   1.408       .  A
C1035      O1040   1.373       .  S
C1036      C1401   1.401   1_554  A
C1037      C1400   1.401       .  A
C1037      C1038   1.403       .  A
C1037      H1041   1.084       .  S
C1038      O1042   1.371       .  S
O1040      H1044   0.992       .  S
O1042      H1043   0.991       .  S
C1045      C1046   1.397       .  A
C1045      C1050   1.405       .  A
C1046      C1047   1.395       .  A
C1047      C1048   1.417       .  A
C1048      C1049   1.411       .  A
C1049      C1050   1.399       .  A
C1049      H1053   1.076       .  S
C1050      O1054   1.372       .  S
O1052      H1056   0.992       .  S
O1054      H1055   0.992       .  S
C1057      C1058   1.398       .  A
C1057      C1062   1.397       .  A
C1058      C1059   1.404       .  A
C1058      H1063   1.084       .  S
C1059      C1060   1.419       .  A
C1059      O1064   1.369       .  S
C1060      C1061   1.413       .  A
C1061      C1062   1.395       .  A
C1061      H1065   1.081       .  S
C1062      O1066   1.372       .  S
O1064      H1068   0.993       .  S
O1066      H1067   0.992       .  S
C1069      C1074   1.404       .  A
C1070      C1071   1.403       .  A
C1070      H1075   1.084       .  S
C1071      C1072   1.410       .  A
C1071      O1076   1.371       .  S
C1073      C1074   1.400       .  A
C1073      H1077   1.083       .  S
C1074      O1078   1.373       .  S
O1076      H1080   0.991       .  S
O1078      H1079   0.992       .  S
C1081      C1082   1.405       .  A
C1081      C1086   1.406       .  A
C1082      C1083   1.399       .  A
C1082      H1087   1.084       .  S
C1083      C1084   1.407       .  A
C1083      O1088   1.373       .  S
C1084      C1085   1.406       .  A
C1085      C1086   1.400       .  A
C1085      H1089   1.083       .  S
C1086      O1090   1.372       .  S
O1088      H1092   0.992       .  S
O1090      H1091   0.992       .  S
C1093      C1094   1.531       .  S
C1093      C1099   1.536       .  S
C1093      C1097   1.544       .  S
C1093      C1412   1.527       .  S
C1094      H1101   1.086       .  S
C1094      C1095   1.366       .  D
C1095      C1096   1.543       .  S
C1095      C1436   1.491       .  S
C1096      C1100   1.537       .  S
C1096      C1098   1.531       .  S
C1096      H1102   1.107       .  S
C1097      H1103   1.082       .  S
C1097      C1098   1.364       .  D
C1098      C1421   1.470       .  S
C1099      H1104   1.086       .  S
C1099      C1100   1.365       .  D
C1100      C1448   1.482       .  S
C1105      C1106   1.533       .  S
C1105      C1111   1.539       .  S
C1105      C1109   1.541       .  S
C1105      C1373   1.531       .  S
C1106      H1113   1.086       .  S
C1106      C1107   1.367       .  D
C1107      C1108   1.539       .  S
C1107      C1445   1.481       .  S
C1108      C1112   1.539       .  S
C1108      C1110   1.532       .  S
C1108      H1114   1.110       .  S
C1109      H1115   1.086       .  S
C1109      C1110   1.364       .  D
C1110      C1388   1.471       .  S
C1111      H1116   1.082       .  S
C1111      C1112   1.363       .  D
C1112      C1400   1.481       .  S
C1117      C1118   1.536       .  S
C1117      C1123   1.531       .  S
C1117      C1121   1.535       .  S
C1117      C1349   1.532       .  S
C1118      H1125   1.082       .  S
C1118      C1119   1.362       .  D
C1119      C1120   1.546       .  S
C1119      C1433   1.481       .  S
C1120      C1124   1.541       .  S
C1120      C1122   1.548       .  S
C1120      H1126   1.104       .  S
C1121      H1127   1.084       .  S
C1121      C1122   1.373       .  D
C1122      C1424   1.504       .  S
C1123      H1128   1.086       .  S
C1123      C1124   1.364       .  D
C1124      C1361   1.484       .  S
C1129      C1130   1.535       .  S
C1129      C1135   1.529       .  S
C1129      C1133   1.542       .  S
C1129      C1337   1.534       .  S
C1130      H1137   1.087       .  S
C1130      C1131   1.362       .  D
C1131      C1132   1.538       .  S
C1131      C1364   1.481       .  S
C1132      C1136   1.553       .  S
C1132      C1134   1.547       .  S
C1132      H1138   1.106       .  S
C1133      H1139   1.077       .  S
C1133      C1134   1.369       .  D
C1134      C1385   1.504       .  S
C1135      H1140   1.086       .  S
C1135      C1136   1.367       .  D
C1136      C1397   1.492       .  S
C1141      C1142   1.535       .  S
C1141      C1147   1.535       .  S
C1141      C1145   1.536       .  S
C1141      C1289   1.532       .  S
C1142      H1149   1.086       .  S
C1142      C1143   1.368       .  D
C1143      C1144   1.542       .  S
C1143      C1325   1.486       .  S
C1144      C1148   1.543       .  S
C1144      C1146   1.544       .  S
C1144      H1150   1.110       .  S
C1145      H1151   1.086       .  S
C1145      C1146   1.367       .  D
C1146      C1301   1.488       .  S
C1147      H1152   1.079       .  S
C1147      C1148   1.361       .  D
C1148      C1316   1.484       .  S
C1153      C1154   1.537       .  S
C1153      C1159   1.535       .  S
C1153      C1157   1.539       .  S
C1153      C1253   1.535       .  S
C1154      H1161   1.080       .  S
C1154      C1155   1.361       .  D
C1155      C1156   1.548       .  S
C1155      C1280   1.485       .  S
C1156      C1160   1.544       .  S
C1156      C1158   1.544       .  S
C1156      H1162   1.108       .  S
C1157      H1163   1.086       .  S
C1157      C1158   1.371       .  D
C1158      C1268   1.497       .  S
C1159      H1164   1.086       .  S
C1159      C1160   1.365       .  D
C1160      C1328   1.486       .  S
C1165      C1166   1.538       .  S
C1165      C1171   1.541       .  S
C1165      C1169   1.536       .  S
C1165      C1229   1.532       .  S
C1166      H1173   1.085       .  S
C1166      C1167   1.369       .  D
C1167      C1168   1.539       .  S
C1167      C1241   1.483       .  S
C1168      C1172   1.536       .  S
C1168      C1170   1.535       .  S
C1168      H1174   1.110       .  S
C1169      H1175   1.086       .  S
C1169      C1170   1.362       .  D
C1170      C1304   1.473       .  S
C1171      H1176   1.079       .  S
C1171      C1172   1.361       .  D
C1172      C1313   1.480       .  S
C1177      C1178   1.535       .  S
C1177      C1183   1.534       .  S
C1177      C1181   1.546       .  S
C1177      C1220   1.533       .  S
C1178      H1185   1.085       .  S
C1178      C1179   1.368       .  D
C1179      C1180   1.539       .  S
C1179      C1277   1.484       .  S
C1180      C1184   1.540       .  S
C1180      C1182   1.532       .  S
C1180      H1186   1.111       .  S
C1181      H1187   1.081       .  S
C1181      C1182   1.362       .  D
C1182      C1265   1.471       .  S
C1183      H1188   1.086       .  S
C1183      C1184   1.366       .  D
C1184      C1244   1.483       .  S
O1189     Ni1197   1.916       .  S
O1189      C1199   1.281       .  A
O1190     Ni1197   1.921       .  S
O1190      C1200   1.283       .  A
O1191     Ni1197   1.912       .  S
O1191      C1201   1.281       .  A
O1192     Ni1197   1.910       .  S
O1192      C1202   1.280       .  A
O1193     Ni1198   1.921       .  S
O1193      C1202   1.282       .  A
O1194     Ni1198   1.917       .  S
O1194      C1201   1.282       .  A
O1195     Ni1198   1.913       .  S
O1195      C1200   1.281       .  A
O1196     Ni1198   1.913       .  S
O1196      C1199   1.280       .  A
Ni1197    Ni1198   2.387       .  S
C1199      C1340   1.469       .  S
C1200      C1256   1.487       .  S
C1201      C1376   1.486       .  S
C1202      C1217   1.475       .  S
O1203      C1213   1.280       .  A
O1204     Ni1211   1.911   1_565  S
O1205     Ni1211   1.907       .  S
O1206      C1216   1.279       .  A
O1207     Ni1212   1.912   1_565  S
O1208      C1215   1.281       .  A
O1209      C1214   1.283       .  A
O1210     Ni1212   1.917       .  S
C1213      C1292   1.482       .  S
C1214      C1352   1.486       .  S
C1215      C1232   1.479       .  S
C1216      C1409   1.468       .  S
C1217      C1218   1.400       .  A
C1217      C1222   1.405       .  A
C1218      C1219   1.401       .  A
C1218      H1223   1.084       .  S
C1219      C1220   1.418       .  A
C1219      O1224   1.373       .  S
C1220      C1221   1.411       .  A
C1221      C1222   1.398       .  A
C1221      H1225   1.076       .  S
C1222      O1226   1.372       .  S
O1224      H1228   0.992       .  S
O1226      H1227   0.992       .  S
C1229      C1230   1.411       .  A
C1229      C1234   1.415       .  A
C1230      C1231   1.394       .  A
C1230      H1235   1.074       .  S
C1231      C1232   1.407       .  A
C1232      C1233   1.404       .  A
C1233      C1234   1.401       .  A
C1233      H1237   1.083       .  S
C1234      O1238   1.372       .  S
O1236      H1240   0.993       .  S
O1238      H1239   0.992       .  S
C1241      C1242   1.404       .  A
C1241      C1246   1.410       .  A
C1242      C1243   1.397       .  A
C1242      H1247   1.082       .  S
C1243      C1244   1.410       .  A
C1243      O1248   1.372       .  S
C1244      C1245   1.403       .  A
C1245      C1246   1.397       .  A
C1245      H1249   1.081       .  S
C1246      O1250   1.372       .  S
O1248      H1252   0.992       .  S
O1250      H1251   0.992       .  S
C1253      C1254   1.413       .  A
C1253      C1258   1.415       .  A
C1254      C1255   1.399       .  A
C1254      H1259   1.075       .  S
C1255      C1256   1.409       .  A
C1255      O1260   1.372       .  S
C1256      C1257   1.405       .  A
C1257      C1258   1.400       .  A
C1257      H1261   1.083       .  S
C1258      O1262   1.373       .  S
O1260      H1264   0.991       .  S
O1262      H1263   0.992       .  S
C1265      C1266   1.396       .  A
C1266      H1271   1.083       .  S
C1267      O1272   1.369       .  S
C1268      C1269   1.411       .  A
C1269      H1273   1.083       .  S
C1270      O1274   1.372       .  S
O1272      H1276   0.993       .  S
O1274      H1275   0.992       .  S
C1277      C1282   1.408       .  A
C1278      C1279   1.403       .  A
C1278      H1283   1.083       .  S
C1279      C1280   1.412       .  A
C1279      O1284   1.372       .  S
C1281      C1282   1.399       .  A
C1281      H1285   1.072       .  S
C1282      O1286   1.374       .  S
O1284      H1288   0.992       .  S
O1286      H1287   0.992       .  S
C1289      C1290   1.412       .  A
C1289      C1294   1.414       .  A
C1290      C1291   1.397       .  A
C1290      H1295   1.075       .  S
C1291      C1292   1.408       .  A
C1292      C1293   1.405       .  A
C1293      C1294   1.398       .  A
C1293      H1297   1.083       .  S
C1294      O1298   1.373       .  S
O1296      H1300   0.992       .  S
O1298      H1299   0.991       .  S
C1301      C1302   1.403       .  A
C1301      C1306   1.415       .  A
C1302      C1303   1.401       .  A
C1302      H1307   1.080       .  S
C1303      C1304   1.407       .  A
C1303      O1308   1.372       .  S
C1304      C1305   1.397       .  A
C1305      C1306   1.399       .  A
C1305      H1309   1.084       .  S
C1306      O1310   1.371       .  S
O1308      H1312   0.992       .  S
O1310      H1311   0.991       .  S
C1313      C1314   1.398       .  A
C1314      C1315   1.402       .  A
C1314      H1319   1.084       .  S
C1315      O1320   1.373       .  S
C1316      C1317   1.399       .  A
C1317      C1318   1.399       .  A
C1317      H1321   1.080       .  S
C1318      O1322   1.372       .  S
O1320      H1324   0.992       .  S
O1322      H1323   0.992       .  S
C1325      C1326   1.405       .  A
C1325      C1330   1.410       .  A
C1326      C1327   1.399       .  A
C1326      H1331   1.083       .  S
C1327      C1328   1.409       .  A
C1327      O1332   1.371       .  S
C1328      C1329   1.405       .  A
C1329      C1330   1.401       .  A
C1329      H1333   1.083       .  S
C1330      O1334   1.371       .  S
O1332      H1336   0.992       .  S
O1334      H1335   0.991       .  S
C1337      C1338   1.414       .  A
C1337      C1342   1.417       .  A
C1338      C1339   1.398       .  A
C1338      H1343   1.074       .  S
C1339      C1340   1.401       .  A
C1339      O1344   1.372       .  S
C1340      C1341   1.399       .  A
C1341      C1342   1.400       .  A
C1341      H1345   1.084       .  S
C1342      O1346   1.372       .  S
O1344      H1348   0.992       .  S
O1346      H1347   0.991       .  S
C1349      C1350   1.409       .  A
C1349      C1354   1.417       .  A
C1350      C1351   1.398       .  A
C1350      H1355   1.076   1_655  S
C1351      C1352   1.411       .  A
C1352      C1353   1.404       .  A
C1353      C1354   1.400       .  A
C1353      H1357   1.083       .  S
C1354      O1358   1.373       .  S
O1356      H1360   0.992       .  S
O1358      H1359   0.992       .  S
C1361      C1362   1.404       .  A
C1361      C1366   1.409       .  A
C1362      C1363   1.399       .  A
C1362      H1367   1.084       .  S
C1363      C1364   1.407       .  A
C1363      O1368   1.371       .  S
C1364      C1365   1.403       .  A
C1365      C1366   1.401       .  A
C1365      H1369   1.084       .  S
C1366      O1370   1.371       .  S
O1368      H1372   0.992       .  S
O1370      H1371   0.992       .  S
C1373      C1374   1.410       .  A
C1373      C1378   1.415       .  A
C1374      C1375   1.397       .  A
C1374      H1379   1.078       .  S
C1375      C1376   1.411       .  A
C1375      O1380   1.372       .  S
C1376      C1377   1.405       .  A
C1377      C1378   1.400       .  A
C1377      H1381   1.083       .  S
C1378      O1382   1.372       .  S
O1380      H1384   0.992       .  S
O1382      H1383   0.991       .  S
C1385      C1386   1.414       .  A
C1386      H1391   1.082       .  S
C1387      O1392   1.372       .  S
C1388      C1389   1.400       .  A
C1389      H1393   1.084       .  S
C1390      O1394   1.368       .  S
O1392      H1396   0.992       .  S
O1394      H1395   0.992       .  S
C1397      C1402   1.415       .  A
C1398      C1399   1.400       .  A
C1398      H1403   1.076       .  S
C1399      C1400   1.408       .  A
C1399      O1404   1.373       .  S
C1401      C1402   1.403       .  A
C1401      H1405   1.084       .  S
C1402      O1406   1.371       .  S
O1404      H1408   0.992       .  S
O1406      H1407   0.991       .  S
C1409      C1410   1.397       .  A
C1409      C1414   1.405       .  A
C1410      C1411   1.395       .  A
C1411      C1412   1.417       .  A
C1412      C1413   1.411       .  A
C1413      C1414   1.399       .  A
C1413      H1417   1.076       .  S
C1414      O1418   1.372       .  S
O1416      H1420   0.992       .  S
O1418      H1419   0.992       .  S
C1421      C1422   1.398       .  A
C1421      C1426   1.397       .  A
C1422      C1423   1.404       .  A
C1422      H1427   1.084       .  S
C1423      C1424   1.419       .  A
C1423      O1428   1.369       .  S
C1424      C1425   1.413       .  A
C1425      C1426   1.395       .  A
C1425      H1429   1.081       .  S
C1426      O1430   1.372       .  S
O1428      H1432   0.993       .  S
O1430      H1431   0.992       .  S
C1433      C1438   1.404       .  A
C1434      C1435   1.403       .  A
C1434      H1439   1.084       .  S
C1435      C1436   1.410       .  A
C1435      O1440   1.371       .  S
C1437      C1438   1.400       .  A
C1437      H1441   1.083       .  S
C1438      O1442   1.373       .  S
O1440      H1444   0.991       .  S
O1442      H1443   0.992       .  S
C1445      C1446   1.405       .  A
C1445      C1450   1.406       .  A
C1446      C1447   1.399       .  A
C1446      H1451   1.084       .  S
C1447      C1448   1.407       .  A
C1447      O1452   1.373       .  S
C1448      C1449   1.406       .  A
C1449      C1450   1.400       .  A
C1449      H1453   1.083       .  S
C1450      O1454   1.372       .  S
O1452      H1456   0.992       .  S
O1454      H1455   0.992       .  S
