geometry optimzed in LAMMPS
_audit_creation_date              2020-11-30 
_audit_creation_method            'lammps2cif' 
_symmetry_space_group_name_H-M    'P1' 
_symmetry_Int_Tables_number       1 
_symmetry_cell_setting            triclinic 
loop_ 
_symmetry_equiv_pos_as_xyz 
  x,y,z 
_cell_length_a                    31.18192299 
_cell_length_b                    63.3683392973838 
_cell_length_c                    38.02430973076796 
_cell_angle_alpha                 90.00631980803063 
_cell_angle_beta                  105.99964184643903 
_cell_angle_gamma                 90.26646380615392 
loop_ 
_atom_site_label 
_atom_site_type_symbol 
_atom_site_fract_x 
_atom_site_fract_y 
_atom_site_fract_z 
_atom_site_charge 
In1        In  0.49036997  0.72091117  0.74284018     1.36900
C2          C  0.42197614  0.69569866  0.71060446     0.78300
O3          O  0.46128539  0.74953554  0.71076223    -0.60100
O4          O  0.51571165  0.73492818  0.69783553    -0.51100
C5          C  0.49633888  0.74528968  0.80069712     0.71000
O6          O  0.46374669  0.73307671  0.78787906    -0.45900
C7          C  0.55686865  0.69531588  0.77518883     0.75700
O8          O  0.42029964  0.70926086  0.73435019    -0.57800
O9          O  0.55853090  0.70730719  0.74907474    -0.47900
O10         O  0.45906487  0.69496446  0.70338826    -0.54200
C11         C  0.48770087  0.74973350  0.69105665     0.85900
O12         O  0.52602378  0.74479089  0.78392201    -0.56100
O13         O  0.52035673  0.69578027  0.78326428    -0.59400
In14       In  0.90980012  0.37172379  0.42285176     1.36900
C15         C  0.83057066  0.35283255  0.39700705     0.78300
O16         O  0.89898163  0.38071493  0.36435440    -0.60100
O17         O  0.95195421  0.35987741  0.38811035    -0.51100
C18         C  0.92809305  0.41183283  0.44445774     0.71000
O19         O  0.89243200  0.40258536  0.44510454    -0.45900
C20         C  0.94835807  0.34937025  0.48287108     0.75700
O21         O  0.83439822  0.37202700  0.40630909    -0.57800
O22         O  0.96553980  0.35173149  0.45679017    -0.47900
O23         O  0.86729609  0.34344895  0.40207137    -0.54200
C24         C  0.93054036  0.36967067  0.35981481     0.85900
O25         O  0.95401957  0.40061456  0.43226500    -0.56100
O26         O  0.91233790  0.35928957  0.47867620    -0.59400
In27       In  0.06673003  0.59407881  0.57494401     1.36900
C28         C  0.15031279  0.60768161  0.60266349     0.78300
O29         O  0.06916546  0.60605437  0.52027194    -0.60100
O30         O  0.03120388  0.62354949  0.54794514    -0.51100
C31         C  0.03949942  0.55580619  0.54653369     0.71000
O32         O  0.07938484  0.55993538  0.56365784    -0.45900
C33         C  0.03620527  0.59287959  0.63377173     0.75700
O34         O  0.14075790  0.59228396  0.58078163    -0.57800
O35         O  0.01550199  0.60213263  0.60462586    -0.47900
O36         O  0.11746044  0.61559662  0.61099956    -0.54200
C37         C  0.04533515  0.62203598  0.51995775     0.85900
O38         O  0.01391835  0.57142580  0.54404329    -0.56100
O39         O  0.07139688  0.58376110  0.63204048    -0.59400
In40       In  0.92099506  0.60294781  0.92936381     1.36900
C41         C  0.83952100  0.61840342  0.90118561     0.78300
O42         O  0.91626959  0.61783887  0.98137018    -0.60100
O43         O  0.97074069  0.62675861  0.96143992    -0.51100
C44         C  0.94887161  0.56574493  0.95935571     0.71000
O45         O  0.90863834  0.57149367  0.95252488    -0.45900
C46         C  0.94055007  0.60026024  0.86574294     0.75700
O47         O  0.84582421  0.59996804  0.91422607    -0.57800
O48         O  0.95503580  0.61498374  0.88832983    -0.47900
O49         O  0.87494256  0.62851420  0.90302110    -0.54200
C50         C  0.95024769  0.62945354  0.98546117     0.85900
O51         O  0.97470687  0.57944639  0.95223901    -0.56100
O52         O  0.91732648  0.58660275  0.87628063    -0.59400
In53       In  0.06206784  0.37894769  0.07335909     1.36900
C54         C  0.14068191  0.36051754  0.10074803     0.78300
O55         O  0.06333747  0.38710636  0.13083515    -0.60100
O56         O  0.01616853  0.36441375  0.10288879    -0.51100
C57         C  0.04259697  0.41881328  0.05201851     0.71000
O58         O  0.08118097  0.41317975  0.06990124    -0.45900
C59         C  0.03616625  0.35641467  0.01235054     0.75700
O60         O  0.13736297  0.37876655  0.08680989    -0.57800
O61         O  0.01096749  0.35970373  0.03261729    -0.47900
O62         O  0.10375636  0.35214839  0.10019104    -0.54200
C63         C  0.03343758  0.37402954  0.13249155     0.85900
O64         O  0.01446486  0.40400725  0.04481573    -0.56100
O65         O  0.07382095  0.36530943  0.02266943    -0.59400
In66       In  0.47919071  0.24715752  0.24531746     1.36900
C67         C  0.54741976  0.27306872  0.27455247     0.78300
O68         O  0.44413076  0.27117168  0.20441733    -0.60100
O69         O  0.41716557  0.26388799  0.24822919    -0.51100
C70         C  0.47540689  0.22089708  0.18970164     0.71000
O71         O  0.51076894  0.23005946  0.20736717    -0.45900
C72         C  0.48115145  0.21871642  0.29731254     0.75700
O73         O  0.54043305  0.26528289  0.24299541    -0.57800
O74         O  0.44664224  0.22914741  0.28232140    -0.47900
O75         O  0.51872966  0.26800376  0.29083220    -0.54200
C76         C  0.41327260  0.27429628  0.21931500     0.85900
O77         O  0.44202595  0.22522969  0.20080112    -0.56100
O78         O  0.51414993  0.22281664  0.28535890    -0.59400
In79       In  0.43282063  0.09438656  0.92506225     1.36900
C80         C  0.35284976  0.11262347  0.89944318     0.78300
O81         O  0.42864532  0.10510617  0.97997256    -0.60100
O82         O  0.47847211  0.11881643  0.95880265    -0.51100
C83         C  0.45735743  0.05623774  0.95429889     0.71000
O84         O  0.48458819  0.07081887  0.95330144    -0.45900
C85         C  0.45842216  0.09457674  0.86341028     0.75700
O86         O  0.38951264  0.12208259  0.90339317    -0.57800
O87         O  0.47793804  0.10538297  0.89115894    -0.47900
O88         O  0.35721193  0.09341361  0.90862543    -0.54200
C89         C  0.45974710  0.11850557  0.98430791     0.85900
O90         O  0.41713796  0.06094782  0.93922587    -0.56100
O91         O  0.42678241  0.08347456  0.86792246    -0.59400
In92       In  0.57591260  0.86997466  0.07165017     1.36900
C93         C  0.65489940  0.85331659  0.10489032     0.78300
O94         O  0.58087892  0.88036445  0.12806705    -0.60100
O95         O  0.52650594  0.86045230  0.10165502    -0.51100
C96         C  0.55341450  0.90952642  0.04923085     0.71000
O97         O  0.59238975  0.90246786  0.05371885    -0.45900
C98         C  0.54847635  0.84444570  0.01446567     0.75700
O99         O  0.65162850  0.87081982  0.08845878    -0.57800
O100        O  0.53333239  0.84347976  0.04183482    -0.47900
O101        O  0.61830816  0.84435465  0.10283811    -0.54200
C102        C  0.54666189  0.87031526  0.13032829     0.85900
O103        O  0.52610447  0.89608097  0.05468860    -0.56100
O104        O  0.57598130  0.85922850  0.01552740    -0.59400
In105      In  0.01189401  0.22628988  0.75490876     1.36900
C106        C  0.07792692  0.20042274  0.79066015     0.78300
O107        O  0.03344923  0.25683703  0.78463573    -0.60100
O108        O  0.97919219  0.24065383  0.79534463    -0.51100
C109        C  0.01394013  0.25002914  0.69703827     0.71000
O110        O  0.04881132  0.24477662  0.72123826    -0.45900
C111        C  0.94429534  0.20022026  0.72480667     0.75700
O112        O  0.07294355  0.20647022  0.75822987    -0.57800
O113        O  0.94214846  0.21417304  0.74793314    -0.47900
O114        O  0.04903684  0.20760714  0.80488491    -0.54200
C115        C  0.00434044  0.25667841  0.80193146     0.85900
O116        O  0.97855536  0.24298097  0.70260794    -0.56100
O117        O  0.98180145  0.19907078  0.71849569    -0.59400
In118      In  0.58722669  0.09824690  0.57238052     1.36900
C119        C  0.66602769  0.11690006  0.60210523     0.78300
O120        O  0.58754941  0.10795063  0.51572237    -0.60100
O121        O  0.53653844  0.11991487  0.53683768    -0.51100
C122        C  0.56884101  0.05972629  0.54517444     0.71000
O123        O  0.60836421  0.06652413  0.55656381    -0.45900
C124        C  0.55564463  0.09735686  0.63078332     0.75700
O125        O  0.66237139  0.09757710  0.59385217    -0.57800
O126        O  0.54130179  0.10961538  0.60413697    -0.47900
O127        O  0.62939798  0.12657404  0.59407388    -0.54200
C128        C  0.55293067  0.11908168  0.51001103     0.85900
O129        O  0.53941031  0.07254238  0.54841602    -0.56100
O130        O  0.58624293  0.08528193  0.62725611    -0.59400
In131      In  0.43748216  0.87688103  0.42790678     1.36900
C132        C  0.35514612  0.86217319  0.39943944     0.78300
O133        O  0.43195565  0.88566049  0.37036298    -0.60100
O134        O  0.48787830  0.86768488  0.39867123    -0.51100
C135        C  0.46106717  0.91554205  0.45171519     0.71000
O136        O  0.42154560  0.90884799  0.44566381    -0.45900
C137        C  0.46491394  0.85265218  0.48646382     0.75700
O138        O  0.36283994  0.88114543  0.40921379    -0.57800
O139        O  0.47319283  0.84854314  0.45660324    -0.47900
O140        O  0.38962899  0.85098123  0.40508064    -0.54200
C141        C  0.46720498  0.87640558  0.36911309     0.85900
O142        O  0.48840569  0.90223200  0.44608878    -0.56100
O143        O  0.44362380  0.86946996  0.48661795    -0.59400
In144      In  0.00893481  0.75293235  0.25880230     1.36900
C145        C  0.07569285  0.78031295  0.28398905     0.78300
O146        O  0.93443903  0.75373963  0.23629608    -0.60100
O147        O  0.96984422  0.78259586  0.24285154    -0.51100
C148        C  0.00978116  0.73059750  0.19902652     0.71000
O149        O  0.00866328  0.75041977  0.19953406    -0.45900
C150        C  0.01116332  0.72864211  0.31686611     0.75700
O151        O  0.07506442  0.76722335  0.25885469    -0.57800
O152        O  0.97770858  0.73944399  0.30068126    -0.47900
O153        O  0.04231942  0.77901392  0.29652163    -0.54200
C154        C  0.93264569  0.77341279  0.23154504     0.85900
O155        O  0.01359748  0.72238315  0.22992778    -0.56100
O156        O  0.04377499  0.73050675  0.30346048    -0.59400
C157        C  0.17862178  0.81555935  0.29606484    -0.11200
C158        C  0.18504211  0.82231807  0.33218458     0.11400
C159        C  0.15267744  0.81765115  0.35071196    -0.03000
C160        C  0.11716926  0.80408272  0.33373201    -0.05700
C161        C  0.11257145  0.79568096  0.29855989    -0.16500
C162        C  0.14263707  0.80238491  0.27859963     0.02400
C163        C  0.22796104  0.83269347  0.35071078     0.12400
C164        C  0.15552508  0.82724248  0.38791438     0.63000
H165        H  0.09311943  0.79964252  0.34823979     0.12400
C166        C  0.13711104  0.79595300  0.23911941     0.55100
H167        H  0.20338154  0.81998094  0.28222059     0.08200
C168        C  0.26586590  0.82058099  0.36799640    -0.05600
C169        C  0.30595583  0.83110175  0.38453838    -0.06300
C170        C  0.31004793  0.85314693  0.38291626    -0.15900
C171        C  0.27242410  0.86524282  0.36403849    -0.01500
C172        C  0.23159041  0.85469391  0.34872778    -0.09100
C173        C  0.26429393  0.79657420  0.36825234     0.65200
H174        H  0.33490051  0.82198690  0.39855327     0.10700
C175        C  0.27554143  0.88887307  0.35838037     0.63600
H176        H  0.20225589  0.86345470  0.33435161     0.08000
F177        F  0.14554751  0.77464456  0.23727731    -0.19400
F178        F  0.16624679  0.80681258  0.22389435    -0.15700
F179        F  0.09416792  0.80030780  0.21831651    -0.19100
F180        F  0.15416491  0.84899630  0.38498540    -0.22500
F181        F  0.19487710  0.82149865  0.41305811    -0.24000
F182        F  0.12043637  0.82079103  0.40114551    -0.18000
F183        F  0.30887450  0.89308015  0.34168369    -0.20500
F184        F  0.28484662  0.89922210  0.39166242    -0.21600
F185        F  0.23609580  0.89695287  0.33628024    -0.18800
F186        F  0.30540069  0.78795774  0.38561160    -0.18900
F187        F  0.25174612  0.78899421  0.33277999    -0.22700
F188        F  0.23395932  0.78968111  0.38626571    -0.24400
C189        C  0.47342914  0.96939778  0.49787186    -0.11200
C190        C  0.50703118  0.97829036  0.48447326     0.11400
C191        C  0.52533939  0.96665197  0.46044547    -0.03000
C192        C  0.50843190  0.94637485  0.44991269    -0.05700
C193        C  0.47476987  0.93736483  0.46324229    -0.16500
C194        C  0.45690865  0.94895080  0.48781046     0.02400
C195        C  0.52398089  0.99944981  0.49785120     0.12400
C196        C  0.56347235  0.97531539  0.44694739     0.63000
H197        H  0.52197727  0.93720425  0.43146957     0.12400
C198        C  0.42237745  0.93954111  0.50477709     0.55100
H199        H  0.46076936  0.97858738  0.51682883     0.08200
C200        C  0.50097672  0.01804977  0.48336674    -0.05600
C201        C  0.51774602  0.03746045  0.49917360    -0.06300
C202        C  0.55670059  0.03874554  0.52842498    -0.15900
C203        C  0.58058058  0.02013096  0.54200137    -0.01500
C204        C  0.56319202  0.00066456  0.52667830    -0.09100
C205        C  0.45863187  0.01737215  0.45181892     0.65200
H206        H  0.50012801  0.05188255  0.48903076     0.10700
C207        C  0.62329324  0.02063630  0.57307545     0.63600
H208        H  0.57985604  0.98609869  0.53726376     0.08000
F209        F  0.41337332  0.95280127  0.53077961    -0.19400
F210        F  0.43795197  0.92068898  0.52176969    -0.15700
F211        F  0.38281274  0.93600912  0.47805722    -0.19100
F212        F  0.60151079  0.97689051  0.47593378    -0.22500
F213        F  0.55288333  0.99505399  0.43164312    -0.24000
F214        F  0.57285062  0.96237947  0.42069388    -0.18000
F215        F  0.63908710  0.00054789  0.58348140    -0.20500
F216        F  0.61576025  0.03051352  0.60324821    -0.21600
F217        F  0.65600410  0.03145918  0.56212770    -0.18800
F218        F  0.44402448  0.03741649  0.43989946    -0.18900
F219        F  0.42505186  0.00732134  0.46276735    -0.22700
F220        F  0.46617097  0.00655097  0.42253815    -0.24400
C221        C  0.85881484  0.16742447  0.65439346    -0.11200
C222        C  0.82719856  0.16339729  0.67353556     0.11400
C223        C  0.83490535  0.17066323  0.70995387    -0.03000
C224        C  0.87403284  0.18227748  0.72578038    -0.05700
C225        C  0.90550645  0.18670894  0.70648777    -0.16500
C226        C  0.89776151  0.17924182  0.66997696     0.02400
C227        C  0.78611222  0.15160601  0.65443007     0.12400
C228        C  0.80180413  0.16628436  0.73186639     0.63000
H229        H  0.88031715  0.18808465  0.75353271     0.12400
C230        C  0.92913510  0.18436062  0.64681987     0.55100
H231        H  0.85218845  0.16145261  0.62671177     0.08200
C232        C  0.74888467  0.16180871  0.63096308    -0.05600
C233        C  0.71049010  0.14980030  0.61484981    -0.06300
C234        C  0.70903314  0.12782150  0.61964341    -0.15900
C235        C  0.74757175  0.11742064  0.64149286    -0.01500
C236        C  0.78528886  0.12967737  0.65898004    -0.09100
C237        C  0.75034402  0.18510446  0.62183522     0.65200
H238        H  0.68144045  0.15752069  0.59742325     0.10700
C239        C  0.74931379  0.09363783  0.64659546     0.63600
H240        H  0.81485174  0.12224052  0.67623463     0.08000
F241        F  0.93529448  0.20596483  0.64588915    -0.19400
F242        F  0.91243791  0.17743705  0.61108306    -0.15700
F243        F  0.96977917  0.17464860  0.66132471    -0.19100
F244        F  0.79689642  0.14476191  0.73531612    -0.22500
F245        F  0.76082915  0.17487863  0.71436251    -0.24000
F246        F  0.81570961  0.17487035  0.76668284    -0.18000
F247        F  0.74538907  0.08389655  0.61329490    -0.20500
F248        F  0.71505803  0.08700907  0.66064347    -0.21600
F249        F  0.78915704  0.08719345  0.67048447    -0.18800
F250        F  0.70960337  0.19217303  0.60030097    -0.18900
F251        F  0.78171032  0.18836399  0.60280774    -0.22700
F252        F  0.76170647  0.19708453  0.65344722    -0.24400
C253        C  0.49731878  0.85579096  0.20849595    -0.11200
C254        C  0.51294771  0.87277770  0.23220601     0.11400
C255        C  0.53891436  0.88884659  0.22232557    -0.03000
C256        C  0.54819737  0.88738568  0.18846434    -0.05700
C257        C  0.53230695  0.87055610  0.16427415    -0.16500
C258        C  0.50584403  0.85447528  0.17412993     0.02400
C259        C  0.50075882  0.87357003  0.26701768     0.12400
C260        C  0.55697713  0.90742280  0.24741944     0.63000
H261        H  0.56832737  0.89952910  0.18066959     0.12400
C262        C  0.48696219  0.83594402  0.14917831     0.55100
H263        H  0.47791622  0.84364623  0.21717302     0.08200
C264        C  0.45783760  0.87986422  0.26830301    -0.05600
C265        C  0.44877761  0.88054594  0.30235193    -0.06300
C266        C  0.48124667  0.87547123  0.33497437    -0.15900
C267        C  0.52478122  0.86970275  0.33363904    -0.01500
C268        C  0.53330170  0.86838575  0.29928589    -0.09100
C269        C  0.42179102  0.88591250  0.23392867     0.65200
H270        H  0.41568449  0.88489169  0.30356872     0.10700
C271        C  0.56251805  0.86547262  0.36786405     0.63600
H272        H  0.56574103  0.86345974  0.29723408     0.08000
F273        F  0.46379057  0.82196310  0.16527031    -0.19400
F274        F  0.52120436  0.82495786  0.14096143    -0.15700
F275        F  0.45761834  0.84318963  0.11726369    -0.19100
F276        F  0.58838465  0.90044561  0.27838268    -0.22500
F277        F  0.52269847  0.91723533  0.25755552    -0.24000
F278        F  0.57721877  0.92233280  0.23059395    -0.18000
F279        F  0.55376746  0.84721065  0.38459586    -0.20500
F280        F  0.56701686  0.88229801  0.39183072    -0.21600
F281        F  0.60299649  0.86293958  0.35999185    -0.18800
F282        F  0.38399870  0.89352636  0.24193863    -0.18900
F283        F  0.40944397  0.86847761  0.21153254    -0.22700
F284        F  0.43750012  0.90149441  0.21517299    -0.24400
C285        C  0.74476515  0.82465754  0.17646224    -0.11200
C286        C  0.77798837  0.82260597  0.15835054     0.11400
C287        C  0.77174133  0.83169894  0.12317804    -0.03000
C288        C  0.73161655  0.84232882  0.10718598    -0.05700
C289        C  0.69777448  0.84375597  0.12484490    -0.16500
C290        C  0.70472912  0.83527363  0.16049742     0.02400
C291        C  0.81787517  0.81027822  0.17720684     0.12400
C292        C  0.80553174  0.83066595  0.10109937     0.63000
H293        H  0.72610066  0.84903345  0.08006515     0.12400
C294        C  0.67082400  0.83794894  0.18220826     0.55100
H295        H  0.75046628  0.81765452  0.20334539     0.08200
C296        C  0.85537047  0.81982024  0.20165517    -0.05600
C297        C  0.89185614  0.80709875  0.21884457    -0.06300
C298        C  0.89121420  0.78510945  0.21353050    -0.15900
C299        C  0.85248448  0.77542799  0.19010177    -0.01500
C300        C  0.81663845  0.78838525  0.17195018    -0.09100
C301        C  0.85615079  0.84324083  0.21019250     0.65200
H302        H  0.92109888  0.81430491  0.23719538     0.10700
C303        C  0.84850706  0.75170132  0.18393788     0.63600
H304        H  0.78689206  0.78154483  0.15363889     0.08000
F305        F  0.65969744  0.85901923  0.18292070    -0.19400
F306        F  0.68743552  0.83127060  0.21805456    -0.15700
F307        F  0.63287062  0.82625282  0.16646693    -0.19100
F308        F  0.78617935  0.82087170  0.06796703    -0.22500
F309        F  0.84378097  0.81975273  0.11836998    -0.24000
F310        F  0.81776068  0.85096564  0.09440439    -0.18000
F311        F  0.85109155  0.74158830  0.21668850    -0.20500
F312        F  0.88228277  0.74466307  0.16984416    -0.21600
F313        F  0.80828073  0.74603912  0.15953450    -0.18800
F314        F  0.89682340  0.84962375  0.23308986    -0.18900
F315        F  0.82343608  0.84766280  0.22731834    -0.22700
F316        F  0.84828260  0.85483622  0.17827929    -0.24400
C317        C  0.47670890  0.08047192  0.77074134    -0.11200
C318        C  0.49992004  0.09830647  0.76408346     0.11400
C319        C  0.50719158  0.11549915  0.78889756    -0.03000
C320        C  0.49353044  0.11344813  0.82106942    -0.05700
C321        C  0.47125424  0.09530216  0.82843113    -0.16500
C322        C  0.46167674  0.07866172  0.80225372     0.02400
C323        C  0.51494791  0.09814720  0.73034533     0.12400
C324        C  0.52822589  0.13639495  0.78281456     0.63000
H325        H  0.49970126  0.12643745  0.84041355     0.12400
C326        C  0.43601069  0.05896112  0.80718762     0.55100
H327        H  0.47049856  0.06785532  0.75071620     0.08200
C328        C  0.55612882  0.08921028  0.72961004    -0.05600
C329        C  0.56757046  0.08893131  0.69634271    -0.06300
C330        C  0.53938022  0.09745656  0.66407399    -0.15900
C331        C  0.49743517  0.10594486  0.66478900    -0.01500
C332        C  0.48602324  0.10604337  0.69812938    -0.09100
C333        C  0.58809052  0.08040968  0.76406809     0.65200
H334        H  0.59933590  0.08242200  0.69555737     0.10700
C335        C  0.46428709  0.11452728  0.63071519     0.63600
H336        H  0.45439260  0.11245203  0.69952707     0.08000
F337        F  0.43385000  0.04427089  0.77978744    -0.19400
F338        F  0.39273570  0.06430898  0.80619629    -0.15700
F339        F  0.45663306  0.04946982  0.84024408    -0.19100
F340        F  0.49781637  0.15241368  0.78148897    -0.22500
F341        F  0.54105318  0.13707150  0.75083218    -0.24000
F342        F  0.56554811  0.14022869  0.81169431    -0.18000
F343        F  0.42391642  0.11958787  0.63705133    -0.20500
F344        F  0.45597302  0.09953963  0.60315392    -0.21600
F345        F  0.48118856  0.13267877  0.61923943    -0.18800
F346        F  0.62584639  0.07190341  0.75727253    -0.18900
F347        F  0.56734991  0.06465366  0.77859945    -0.22700
F348        F  0.60138350  0.09637660  0.78959084    -0.24400
C349        C  0.17413648  0.17424201  0.86206495    -0.11200
C350        C  0.18802380  0.15925707  0.84040174     0.11400
C351        C  0.16358994  0.15673172  0.80329775    -0.03000
C352        C  0.12741282  0.17026889  0.78848345    -0.05700
C353        C  0.11443747  0.18589778  0.80965932    -0.16500
C354        C  0.13776207  0.18776233  0.84734420     0.02400
C355        C  0.23022501  0.14752220  0.85651061     0.12400
C356        C  0.17602455  0.13990137  0.77944701     0.63000
H357        H  0.10895388  0.16880743  0.75994013     0.12400
C358        C  0.12577700  0.20446897  0.87162195     0.55100
H359        H  0.19303679  0.17564847  0.89050723     0.08200
C360        C  0.27218452  0.15642988  0.85746203    -0.05600
C361        C  0.31078026  0.14427878  0.87121096    -0.06300
C362        C  0.30921945  0.12372645  0.88496847    -0.15900
C363        C  0.26703406  0.11509201  0.88518496    -0.01500
C364        C  0.22819868  0.12721473  0.87070351    -0.09100
C365        C  0.27620354  0.17886605  0.84446947     0.65200
H366        H  0.34285356  0.15098208  0.87149192     0.10700
C367        C  0.26264428  0.09341820  0.90091249     0.63600
H368        H  0.19567811  0.12091834  0.87015216     0.08000
F369        F  0.12549785  0.22417638  0.85590376    -0.19400
F370        F  0.15604454  0.20510648  0.90596555    -0.15700
F371        F  0.08410166  0.20015268  0.87610672    -0.19100
F372        F  0.17245842  0.12017570  0.79393646    -0.22500
F373        F  0.21937341  0.14294540  0.77786062    -0.24000
F374        F  0.14837421  0.14028854  0.74404350    -0.18000
F375        F  0.27675388  0.07812567  0.88070534    -0.20500
F376        F  0.21898529  0.08878921  0.90021275    -0.21600
F377        F  0.28813520  0.09256875  0.93697732    -0.18800
F378        F  0.31986791  0.18417177  0.84624975    -0.18900
F379        F  0.26122412  0.19288199  0.86625926    -0.22700
F380        F  0.25096555  0.18117759  0.80860202    -0.24400
C381        C  0.52093637  0.01220490  0.01573344    -0.11200
C382        C  0.49851675  0.99425320  0.99813962     0.11400
C383        C  0.46001680  0.99675671  0.96826439    -0.03000
C384        C  0.44761353  0.01724374  0.95484438    -0.05700
C385        C  0.47147852  0.03523328  0.97116106    -0.16500
C386        C  0.50753005  0.03275875  0.00326786     0.02400
C387        C  0.51514388  0.97299797  0.01238678     0.12400
C388        C  0.43175259  0.97785177  0.95120795     0.63000
H389        H  0.41919335  0.01935611  0.93121119     0.12400
C390        C  0.53036629  0.05163696  0.02543059     0.55100
H391        H  0.54917331  0.00993750  0.03946768     0.08200
C392        C  0.54738323  0.96199140  0.99963206    -0.05600
C393        C  0.55907866  0.94131352  0.01237242    -0.06300
C394        C  0.54061682  0.93167426  0.03816407    -0.15900
C395        C  0.51122704  0.94347207  0.05323016    -0.01500
C396        C  0.49849463  0.96386577  0.03955357    -0.09100
C397        C  0.57009177  0.97230521  0.97342632     0.65200
H398        H  0.58267539  0.93243795  0.00209981     0.10700
C399        C  0.49502479  0.93510022  0.08481742     0.63600
H400        H  0.47513630  0.97290155  0.04986130     0.08000
F401        F  0.55520595  0.06254384  0.00634690    -0.19400
F402        F  0.55884032  0.04559518  0.05867952    -0.15700
F403        F  0.49863791  0.06490911  0.03259044    -0.19100
F404        F  0.41551442  0.96791140  0.97730199    -0.22500
F405        F  0.45701182  0.96368210  0.93789934    -0.24000
F406        F  0.39569661  0.98369332  0.92256656    -0.18000
F407        F  0.47235320  0.95033441  0.09861376    -0.20500
F408        F  0.53113373  0.92873046  0.11295730    -0.21600
F409        F  0.46636998  0.91821739  0.07336229    -0.18800
F410        F  0.59958227  0.95873914  0.96368796    -0.18900
F411        F  0.59376076  0.98984508  0.98995304    -0.22700
F412        F  0.53879339  0.97851346  0.94181716    -0.24400
C413        C  0.43767368  0.18535179  0.10529053    -0.11200
C414        C  0.47858708  0.17663143  0.10442026     0.11400
C415        C  0.51831906  0.18322687  0.13015601    -0.03000
C416        C  0.51538286  0.19764165  0.15743285    -0.05700
C417        C  0.47431842  0.20596486  0.15930603    -0.16500
C418        C  0.43457447  0.20001261  0.13229127     0.02400
C419        C  0.47846549  0.16083666  0.07563157     0.12400
C420        C  0.56364362  0.17531274  0.12852260     0.63000
H421        H  0.54554782  0.20253169  0.17768523     0.12400
C422        C  0.38922881  0.20922529  0.13107927     0.55100
H423        H  0.40798262  0.18036524  0.08455702     0.08200
C424        C  0.46547111  0.13963473  0.07846640    -0.05600
C425        C  0.46168516  0.12609148  0.04847141    -0.06300
C426        C  0.47135089  0.13296920  0.01631604    -0.15900
C427        C  0.48734588  0.15388524  0.01462227    -0.01500
C428        C  0.48957519  0.16759861  0.04418901    -0.09100
C429        C  0.45521476  0.13145392  0.11286849     0.65200
H430        H  0.45021470  0.11001904  0.04966829     0.10700
C431        C  0.50089673  0.16202814  0.98165148     0.63600
H432        H  0.49934639  0.18393277  0.04283676     0.08000
F433        F  0.35636901  0.20253356  0.10052973    -0.19400
F434        F  0.39120154  0.23102446  0.12988746    -0.15700
F435        F  0.37657688  0.20298695  0.16162113    -0.19100
F436        F  0.57231002  0.18239057  0.09678159    -0.22500
F437        F  0.56435582  0.15351027  0.12894724    -0.24000
F438        F  0.59762940  0.18247481  0.15785284    -0.18000
F439        F  0.46513557  0.16072318  0.95066966    -0.20500
F440        F  0.53597843  0.15017493  0.97680667    -0.21600
F441        F  0.51483941  0.18288232  0.98594633    -0.18800
F442        F  0.44637272  0.10998946  0.11086763    -0.18900
F443        F  0.41833547  0.14164633  0.11802774    -0.22700
F444        F  0.49127849  0.13503673  0.14292093    -0.24400
C445        C  0.45670196  0.17487106  0.35823777    -0.11200
C446        C  0.49793128  0.17381442  0.38491427     0.11400
C447        C  0.53291072  0.18769888  0.38300562    -0.03000
C448        C  0.52544671  0.20217499  0.35407421    -0.05700
C449        C  0.48425279  0.20342151  0.32739352    -0.16500
C450        C  0.44886336  0.18975341  0.32959733     0.02400
C451        C  0.50434608  0.15798390  0.41468237     0.12400
C452        C  0.57828961  0.18702116  0.41107979     0.63000
H453        H  0.55209946  0.21270891  0.35200698     0.12400
C454        C  0.40350674  0.19049579  0.30162771     0.55100
H455        H  0.43067191  0.16393145  0.36016561     0.08200
C456        C  0.49089812  0.16182442  0.44668881    -0.05600
C457        C  0.50634974  0.14829172  0.47680955    -0.06300
C458        C  0.53376788  0.13090641  0.47546083    -0.15900
C459        C  0.54227606  0.12563957  0.44164120    -0.01500
C460        C  0.52776909  0.13954464  0.41190793    -0.09100
C461        C  0.46123646  0.18038232  0.44918563     0.65200
H462        H  0.49828876  0.15168081  0.50215367     0.10700
C463        C  0.56569336  0.10539796  0.43635927     0.63600
H464        H  0.53612608  0.13658134  0.38652693     0.08000
F465        F  0.38342803  0.20966008  0.30395651    -0.19400
F466        F  0.37534114  0.17470125  0.30734152    -0.15700
F467        F  0.40834633  0.18798688  0.26678233    -0.19100
F468        F  0.59937280  0.16831501  0.40759541    -0.22500
F469        F  0.57342620  0.18843286  0.44606058    -0.24000
F470        F  0.60556361  0.20351039  0.40654413    -0.18000
F471        F  0.54553761  0.08835840  0.44824902    -0.20500
F472        F  0.61022925  0.10637676  0.45572768    -0.21600
F473        F  0.56347936  0.10198817  0.39992119    -0.18800
F474        F  0.45166759  0.18110760  0.48262233    -0.18900
F475        F  0.42126250  0.17868592  0.42220850    -0.22700
F476        F  0.48203871  0.19909245  0.44464891    -0.24400
C477        C  0.02023047  0.30718681  0.85955214    -0.11200
C478        C  0.99973631  0.30130648  0.88649505     0.11400
C479        C  0.97530768  0.28221236  0.88278605    -0.03000
C480        C  0.97630982  0.26846564  0.85389964    -0.05700
C481        C  0.00068811  0.27333327  0.82874914    -0.16500
C482        C  0.02131598  0.29356737  0.83060338     0.02400
C483        C  0.00797501  0.31475688  0.91967913     0.12400
C484        C  0.94930546  0.27623190  0.90974066     0.63000
H485        H  0.95934803  0.25337736  0.85168182     0.12400
C486        C  0.04458682  0.30099979  0.80260122     0.55100
H487        H  0.03747582  0.32224247  0.86257056     0.08200
C488        C  0.04855333  0.31332672  0.94777568    -0.05600
C489        C  0.05613670  0.32735229  0.97742624    -0.06300
C490        C  0.02424455  0.34228080  0.98024560    -0.15900
C491        C  0.98322127  0.34348354  0.95261092    -0.01500
C492        C  0.97608719  0.32983269  0.92221818    -0.09100
C493        C  0.08385270  0.29710709  0.94637836     0.65200
H494        H  0.08720128  0.32669738  0.99896994     0.10700
C495        C  0.94779059  0.35937026  0.95486571     0.63600
H496        H  0.94558020  0.33078964  0.90016528     0.08000
F497        F  0.05679992  0.32207782  0.80726708    -0.19400
F498        F  0.01617006  0.29868017  0.76775974    -0.15700
F499        F  0.08296988  0.28942253  0.80593065    -0.19100
F500        F  0.91843583  0.29171904  0.91034349    -0.22500
F501        F  0.97804280  0.27413629  0.94443190    -0.24000
F502        F  0.92642816  0.25736814  0.90037574    -0.18000
F503        F  0.96601268  0.37947266  0.95969993    -0.20500
F504        F  0.93114871  0.35444436  0.98402739    -0.21600
F505        F  0.91248695  0.35939421  0.92341706    -0.18800
F506        F  0.11914838  0.29742569  0.97783977    -0.18900
F507        F  0.10066827  0.30119239  0.91702629    -0.22700
F508        F  0.06546443  0.27706419  0.94270038    -0.24400
C509        C  0.26383440  0.34643505  0.14193080    -0.11200
C510        C  0.25996486  0.32488035  0.14867195     0.11400
C511        C  0.21751402  0.31510598  0.13939245    -0.03000
C512        C  0.17998717  0.32744010  0.12341921    -0.05700
C513        C  0.18336339  0.34912472  0.11640680    -0.16500
C514        C  0.22625850  0.35882841  0.12548664     0.02400
C515        C  0.30091271  0.31299111  0.16657337     0.12400
C516        C  0.21182745  0.29174180  0.14631966     0.63000
H517        H  0.14735568  0.32005836  0.11630183     0.12400
C518        C  0.23286435  0.38202040  0.11834831     0.55100
H519        H  0.29684802  0.35345062  0.14977857     0.08200
C520        C  0.32931806  0.30490732  0.14664845    -0.05600
C521        C  0.36582135  0.29253967  0.16518670    -0.06300
C522        C  0.37499605  0.28832007  0.20286857    -0.15900
C523        C  0.34750274  0.29734781  0.22308952    -0.01500
C524        C  0.31089037  0.30964107  0.20435932    -0.09100
C525        C  0.32132897  0.30952827  0.10613689     0.65200
H526        H  0.38732190  0.28585982  0.15010330     0.10700
C527        C  0.35662321  0.29438814  0.26414333     0.63600
H528        H  0.28895222  0.31646110  0.21893245     0.08000
F529        F  0.27725081  0.38805277  0.13060658    -0.19400
F530        F  0.20896171  0.39429971  0.13630119    -0.15700
F531        F  0.21865515  0.38591742  0.08116015    -0.19100
F532        F  0.22647039  0.28757519  0.18336850    -0.22500
F533        F  0.23623168  0.27983267  0.12830772    -0.24000
F534        F  0.16767809  0.28534232  0.13408124    -0.18000
F535        F  0.40020844  0.30010013  0.28149129    -0.20500
F536        F  0.34954680  0.27353960  0.27183001    -0.21600
F537        F  0.32892015  0.30669544  0.27847842    -0.18800
F538        F  0.35139580  0.29909253  0.09153963    -0.18900
F539        F  0.32597024  0.33093697  0.10116863    -0.22700
F540        F  0.27881785  0.30325572  0.08690258    -0.24400
C541        C  0.01434239  0.66821280  0.05890085    -0.11200
C542        C  0.97961819  0.67565887  0.07233970     0.11400
C543        C  0.93542275  0.66865331  0.05624007    -0.03000
C544        C  0.92780383  0.65359270  0.02804524    -0.05700
C545        C  0.96261009  0.64555279  0.01510416    -0.16500
C546        C  0.00680351  0.65307022  0.03063875     0.02400
C547        C  0.99079801  0.68988320  0.10472014     0.12400
C548        C  0.89644976  0.67709211  0.06871675     0.63000
H549        H  0.89411344  0.64808893  0.01554567     0.12400
C550        C  0.04614141  0.64466703  0.01875458     0.55100
H551        H  0.04773602  0.67408036  0.07146473     0.08200
C552        C  0.00665762  0.68184816  0.14061906    -0.05600
C553        C  0.01370243  0.69589628  0.17027984    -0.06300
C554        C  0.00540789  0.71765854  0.16535867    -0.15900
C555        C  0.99068185  0.72578926  0.12903699    -0.01500
C556        C  0.98407540  0.71161955  0.09936247    -0.09100
C557        C  0.01562554  0.65844273  0.14754024     0.65200
H558        H  0.02534277  0.68980118  0.19784762     0.10700
C559        C  0.98071907  0.74905069  0.12109838     0.63600
H560        H  0.97251438  0.71729268  0.07149689     0.08000
F561        F  0.08634696  0.65263824  0.04008178    -0.19400
F562        F  0.04212059  0.65033055  0.98288772    -0.15700
F563        F  0.04756236  0.62291375  0.02187265    -0.19100
F564        F  0.89180590  0.69846735  0.06152493    -0.22500
F565        F  0.90370244  0.67383840  0.10584140    -0.24000
F566        F  0.85664463  0.66727735  0.05081585    -0.18000
F567        F  0.01876592  0.76095131  0.13564708    -0.20500
F568        F  0.94724372  0.75542540  0.13611152    -0.21600
F569        F  0.96658225  0.75314005  0.08391309    -0.18800
F570        F  0.02868110  0.65378475  0.18452391    -0.18900
F571        F  0.04934790  0.65218824  0.13273587    -0.22700
F572        F  0.97750698  0.64687058  0.13164334    -0.24400
C573        C  0.00921232  0.51291219  0.97731324    -0.11200
C574        C  0.98796141  0.50339203  0.00123398     0.11400
C575        C  0.95498205  0.51467666  0.01261003    -0.03000
C576        C  0.94340629  0.53507295  0.99847886    -0.05700
C577        C  0.96416252  0.54450783  0.97396439    -0.16500
C578        C  0.99742942  0.53316302  0.96285541     0.02400
C579        C  0.00139401  0.48155596  0.01383009     0.12400
C580        C  0.93220986  0.50522916  0.03952290     0.63000
H581        H  0.91814399  0.54392214  0.00670669     0.12400
C582        C  0.01933968  0.54187573  0.93480665     0.55100
H583        H  0.03502215  0.50412502  0.96972423     0.08200
C584        C  0.98639488  0.46372671  0.99121092    -0.05600
C585        C  0.00071173  0.44356638  0.00492700    -0.06300
C586        C  0.03060940  0.44077502  0.03972574    -0.15900
C587        C  0.04648401  0.45869046  0.06197578    -0.01500
C588        C  0.03150893  0.47884420  0.04847748    -0.09100
C589        C  0.95579084  0.46598054  0.95264433     0.65200
H590        H  0.98920035  0.42972878  0.98820168     0.10700
C591        C  0.07809520  0.45658921  0.10009327     0.63600
H592        H  0.04342593  0.49277495  0.06481516     0.08000
F593        F  0.04511997  0.52686585  0.92381914    -0.19400
F594        F  0.04672017  0.55871115  0.94963094    -0.15700
F595        F  0.98700329  0.54842139  0.90401951    -0.19100
F596        F  0.96329107  0.50180112  0.07275610    -0.22500
F597        F  0.91216200  0.48625895  0.02619347    -0.24000
F598        F  0.89968213  0.51843912  0.04554408    -0.18000
F599        F  0.11880325  0.44909201  0.09780040    -0.20500
F600        F  0.06030677  0.44278577  0.12059485    -0.21600
F601        F  0.08547717  0.47575113  0.11832227    -0.18800
F602        F  0.94322271  0.44656554  0.93622854    -0.18900
F603        F  0.97740886  0.47702543  0.93116964    -0.22700
F604        F  0.91754478  0.47667822  0.95345945    -0.24400
C605        C  0.03285928  0.59535961  0.73316161    -0.11200
C606        C  0.98697783  0.59374449  0.72914273     0.11400
C607        C  0.95697161  0.59218016  0.69369483    -0.03000
C608        C  0.97443061  0.59198985  0.66321849    -0.05700
C609        C  0.02059660  0.59293444  0.66728997    -0.16500
C610        C  0.05048301  0.59465219  0.70292519     0.02400
C611        C  0.97187781  0.59447716  0.76292193     0.12400
C612        C  0.90691987  0.59053381  0.68816514     0.63000
H613        H  0.95209027  0.59085606  0.63585711     0.12400
C614        C  0.10069043  0.59627284  0.70928945     0.55100
H615        H  0.05490560  0.59704029  0.76055131     0.08200
C616        C  0.97674029  0.57702064  0.78696959    -0.05600
C617        C  0.96522984  0.57948096  0.82000099    -0.06300
C618        C  0.95017527  0.59883214  0.82987457    -0.15900
C619        C  0.94372110  0.61603510  0.80521239    -0.01500
C620        C  0.95545431  0.61362493  0.77226886    -0.09100
C621        C  0.99494353  0.55605586  0.77820604     0.65200
H622        H  0.96923649  0.56644030  0.83898641     0.10700
C623        C  0.92322560  0.63658155  0.81305080     0.63600
H624        H  0.95255828  0.62682719  0.75368348     0.08000
F625        F  0.11684621  0.57749216  0.69965086    -0.19400
F626        F  0.12265088  0.60027244  0.74560951    -0.15700
F627        F  0.11070082  0.61256335  0.68863365    -0.19100
F628        F  0.89148078  0.60857553  0.70095044    -0.22500
F629        F  0.89731173  0.57327729  0.70695422    -0.24000
F630        F  0.88397782  0.58817010  0.65160956    -0.18000
F631        F  0.95235663  0.64688094  0.84205675    -0.20500
F632        F  0.88363357  0.63246454  0.82158887    -0.21600
F633        F  0.91387016  0.64996934  0.78314667    -0.18800
F634        F  0.99232332  0.54060419  0.80328517    -0.18900
F635        F  0.03924005  0.55836612  0.77884203    -0.22700
F636        F  0.97091214  0.54915440  0.74391865    -0.24400
C637        C  0.97989250  0.69059198  0.38408618    -0.11200
C638        C  0.02156294  0.68738879  0.40925540     0.11400
C639        C  0.05963822  0.69793571  0.40438282    -0.03000
C640        C  0.05436786  0.71178468  0.37453598    -0.05700
C641        C  0.01269194  0.71491990  0.34898845    -0.16500
C642        C  0.97466387  0.70405310  0.35371043     0.02400
C643        C  0.02509857  0.67089321  0.43771982     0.12400
C644        C  0.10590026  0.69385638  0.42966812     0.63000
H645        H  0.08320229  0.71992418  0.37040374     0.12400
C646        C  0.92924053  0.70561200  0.32593409     0.55100
H647        H  0.95159644  0.68185526  0.38793208     0.08200
C648        C  0.01600980  0.67480921  0.47158276    -0.05600
C649        C  0.02210994  0.65830321  0.49739192    -0.06300
C650        C  0.03620355  0.63807388  0.49005121    -0.15900
C651        C  0.04222824  0.63395245  0.45489647    -0.01500
C652        C  0.03666099  0.65055038  0.42952246    -0.09100
C653        C  0.00001000  0.69628918  0.48028287     0.65200
H654        H  0.01666741  0.66124775  0.52387237     0.10700
C655        C  0.05405591  0.61222655  0.44355039     0.63600
H656        H  0.04201226  0.64789810  0.40290663     0.08000
F657        F  0.91296999  0.72588948  0.32556885    -0.19400
F658        F  0.89841881  0.69198671  0.33398048    -0.15700
F659        F  0.93286968  0.70045740  0.29150664    -0.19100
F660        F  0.11805829  0.67324508  0.42558931    -0.22500
F661        F  0.10622799  0.69712365  0.46567133    -0.24000
F662        F  0.13771204  0.70704345  0.42205076    -0.18000
F663        F  0.05128835  0.61130636  0.40660327    -0.20500
F664        F  0.02482311  0.59729486  0.45034632    -0.21600
F665        F  0.09731079  0.60724636  0.46272333    -0.18800
F666        F  0.99258731  0.69670924  0.51453821    -0.18900
F667        F  0.96040072  0.70125651  0.45472479    -0.22700
F668        F  0.03148124  0.71157041  0.47947790    -0.24400
C669        C  0.03190639  0.37006487  0.23212931    -0.11200
C670        C  0.98771326  0.36373841  0.22793340     0.11400
C671        C  0.95947841  0.35932721  0.19263216    -0.03000
C672        C  0.97593748  0.36275407  0.16221443    -0.05700
C673        C  0.01961703  0.37008197  0.16619309    -0.16500
C674        C  0.04897572  0.37273330  0.20186903     0.02400
C675        C  0.97098873  0.36388860  0.26077238     0.12400
C676        C  0.91223465  0.35109398  0.18714674     0.63000
H677        H  0.95429754  0.36017538  0.13491007     0.12400
C678        C  0.09828348  0.37773193  0.20840291     0.55100
H679        H  0.05275651  0.37337721  0.25946324     0.08200
C680        C  0.98263177  0.34828349  0.28826887    -0.05600
C681        C  0.96786395  0.35066249  0.31977674    -0.06300
C682        C  0.94187322  0.36799120  0.32445508    -0.15900
C683        C  0.92896349  0.38322878  0.29606666    -0.01500
C684        C  0.94467716  0.38101130  0.26502932    -0.09100
C685        C  0.01152910  0.32955723  0.28495234     0.65200
H686        H  0.97727297  0.33904983  0.34139475     0.10700
C687        C  0.89951397  0.40195909  0.29826071     0.63600
H688        H  0.93687294  0.39281834  0.24363881     0.08000
F689        F  0.12148253  0.37588987  0.24499301    -0.19400
F690        F  0.10367170  0.39816916  0.19760100    -0.15700
F691        F  0.11702801  0.36378895  0.18889879    -0.19100
F692        F  0.88617651  0.36637940  0.19687499    -0.22500
F693        F  0.91279451  0.33338638  0.20850432    -0.24000
F694        F  0.89248594  0.34553203  0.15107527    -0.18000
F695        F  0.91913686  0.41393659  0.32894049    -0.20500
F696        F  0.85806434  0.39487175  0.29985329    -0.21600
F697        F  0.89289313  0.41498559  0.26801003    -0.18800
F698        F  0.01217030  0.31449425  0.31147494    -0.18900
F699        F  0.05483077  0.33628848  0.28896918    -0.22700
F700        F  0.99548684  0.32000785  0.25114839    -0.24400
C701        C  0.00954929  0.30557872  0.54656133    -0.11200
C702        C  0.99050923  0.30779275  0.57567960     0.11400
C703        C  0.96154895  0.32484017  0.57601093    -0.03000
C704        C  0.95057093  0.33857528  0.54587110    -0.05700
C705        C  0.96725253  0.33573154  0.51538902    -0.16500
C706        C  0.99821805  0.31915994  0.51603032     0.02400
C707        C  0.99911774  0.29125292  0.60438423     0.12400
C708        C  0.94161713  0.32818328  0.60779287     0.63000
H709        H  0.92762632  0.35139579  0.54551236     0.12400
C710        C  0.01799183  0.31509422  0.48434917     0.55100
H711        H  0.03198102  0.29248078  0.54735904     0.08200
C712        C  0.97001970  0.27381220  0.60277993    -0.05600
C713        C  0.97705933  0.26053414  0.63335699    -0.06300
C714        C  0.01315325  0.26338837  0.66463979    -0.15900
C715        C  0.04501842  0.27947733  0.66451879    -0.01500
C716        C  0.03686517  0.29341062  0.63446115    -0.09100
C717        C  0.93113037  0.26830390  0.56992495     0.65200
H718        H  0.95366761  0.24773503  0.63276708     0.10700
C719        C  0.08678313  0.28233166  0.69603124     0.63600
H720        H  0.05944181  0.30645082  0.63445811     0.08000
F721        F  0.98419067  0.31115921  0.45277962    -0.19400
F722        F  0.04607907  0.29780916  0.49061104    -0.15700
F723        F  0.04265392  0.33244887  0.47924707    -0.19100
F724        F  0.97541193  0.33025268  0.63995892    -0.22500
F725        F  0.91499855  0.31114125  0.61070167    -0.24000
F726        F  0.91564792  0.34617348  0.60337602    -0.18000
F727        F  0.11269144  0.29908839  0.69030411    -0.20500
F728        F  0.11249039  0.26429953  0.69998712    -0.21600
F729        F  0.07524303  0.28616406  0.72799357    -0.18800
F730        F  0.89199950  0.26811286  0.58034790    -0.18900
F731        F  0.93783211  0.24837753  0.55760548    -0.22700
F732        F  0.92584030  0.28212301  0.54097413    -0.24400
C733        C  0.64419069  0.31230851  0.29151572    -0.11200
C734        C  0.66626081  0.30791187  0.32816706     0.11400
C735        C  0.64774285  0.29306989  0.34773522    -0.03000
C736        C  0.60826922  0.28242526  0.32925325    -0.05700
C737        C  0.58720663  0.28606960  0.29207528    -0.16500
C738        C  0.60488414  0.30153243  0.27289232     0.02400
C739        C  0.70855861  0.31931555  0.34545011     0.12400
C740        C  0.66983468  0.28836915  0.38782803     0.63000
H741        H  0.59403497  0.27072340  0.34356520     0.12400
C742        C  0.58187016  0.30707739  0.23335655     0.55100
H743        H  0.65853373  0.32410213  0.27745409     0.08200
C744        C  0.74981723  0.31279027  0.34051031    -0.05600
C745        C  0.78854296  0.32421971  0.35806407    -0.06300
C746        C  0.78735463  0.34197429  0.38002600    -0.15900
C747        C  0.74580077  0.34848426  0.38487127    -0.01500
C748        C  0.70697608  0.33709452  0.36699106    -0.09100
C749        C  0.75289264  0.29393703  0.31658772     0.65200
H750        H  0.82026829  0.31946215  0.35425757     0.10700
C751        C  0.74221850  0.36687287  0.40948038     0.63600
H752        H  0.67479997  0.34187664  0.36984442     0.08000
F753        F  0.58464093  0.29032408  0.21081646    -0.19400
F754        F  0.60122523  0.32449939  0.22178100    -0.15700
F755        F  0.53749723  0.31167174  0.22962006    -0.19100
F756        F  0.67131900  0.30644773  0.40846169    -0.22500
F757        F  0.71281563  0.28124996  0.39220055    -0.24000
F758        F  0.64682258  0.27306844  0.40135566    -0.18000
F759        F  0.69957862  0.36875398  0.41347150    -0.20500
F760        F  0.75258744  0.38551064  0.39471708    -0.21600
F761        F  0.77119240  0.36394774  0.44391287    -0.18800
F762        F  0.79652832  0.28974762  0.31685861    -0.18900
F763        F  0.72888220  0.29784688  0.28084728    -0.22700
F764        F  0.73580178  0.27612129  0.32890069    -0.24400
C765        C  0.94561228  0.46264824  0.50075523    -0.11200
C766        C  0.96847020  0.47518614  0.48136862     0.11400
C767        C  0.97696158  0.46710075  0.44921136    -0.03000
C768        C  0.96234208  0.44649404  0.43769690    -0.05700
C769        C  0.93934751  0.43391325  0.45706364    -0.16500
C770        C  0.93040848  0.44216771  0.48900315     0.02400
C771        C  0.98600717  0.49607118  0.49715419     0.12400
C772        C  0.00187240  0.48008039  0.42748214     0.63000
H773        H  0.96912062  0.43993266  0.41348486     0.12400
C774        C  0.90655846  0.42917144  0.51147453     0.55100
H775        H  0.94028088  0.46903699  0.52562319     0.08200
C776        C  0.95879441  0.51418008  0.49344777    -0.05600
C777        C  0.97792188  0.53318374  0.50991176    -0.06300
C778        C  0.02306464  0.53470227  0.53030889    -0.15900
C779        C  0.05002111  0.51625515  0.53457012    -0.01500
C780        C  0.03068776  0.49728772  0.51793835    -0.09100
C781        C  0.90974388  0.51345519  0.47223842     0.65200
H782        H  0.95732016  0.54712298  0.50690818     0.10700
C783        C  0.09874537  0.51619658  0.55661507     0.63600
H784        H  0.05037111  0.48302416  0.52102744     0.08000
F785        F  0.86312216  0.42524085  0.49120389    -0.19400
F786        F  0.90507286  0.43949894  0.54319379    -0.15700
F787        F  0.92852835  0.41024247  0.52135216    -0.19100
F788        F  0.04496067  0.48397807  0.44848771    -0.22500
F789        F  0.98051458  0.49909835  0.41738847    -0.24000
F790        F  0.00414431  0.46977789  0.39593854    -0.18000
F791        F  0.11770496  0.49640254  0.55762658    -0.20500
F792        F  0.10241082  0.52219772  0.59230382    -0.21600
F793        F  0.12288311  0.52993163  0.54107306    -0.18800
F794        F  0.88952990  0.53292035  0.47153268    -0.18900
F795        F  0.88722679  0.49920921  0.48826139    -0.22700
F796        F  0.90532942  0.50735103  0.43652804    -0.24400
C797        C  0.52383485  0.79414388  0.95793722    -0.11200
C798        C  0.51911350  0.80227779  0.92286255     0.11400
C799        C  0.52096010  0.82431231  0.91755395    -0.03000
C800        C  0.52951326  0.83758146  0.94829686    -0.05700
C801        C  0.53577767  0.82945319  0.98364751    -0.16500
C802        C  0.53295332  0.80735212  0.98880673     0.02400
C803        C  0.51375276  0.78717013  0.89234981     0.12400
C804        C  0.51412317  0.83370323  0.87966001     0.63000
H805        H  0.53169593  0.85449829  0.94501703     0.12400
C806        C  0.54208760  0.79757046  0.02663720     0.55100
H807        H  0.52168350  0.77720396  0.96094911     0.08200
C808        C  0.55095748  0.77736816  0.88492560    -0.05600
C809        C  0.54356086  0.76374220  0.85471935    -0.06300
C810        C  0.50032152  0.75909295  0.83284289    -0.15900
C811        C  0.46292864  0.76823249  0.84143900    -0.01500
C812        C  0.47052785  0.78231465  0.87113042    -0.09100
C813        C  0.59811306  0.78111781  0.90907805     0.65200
H814        H  0.57167634  0.75635251  0.84819756     0.10700
C815        C  0.41533397  0.76352133  0.81929685     0.63600
H816        H  0.44274901  0.78970471  0.87818178     0.08000
F817        F  0.58337780  0.80415912  0.04811643    -0.19400
F818        F  0.54236604  0.77572880  0.02522759    -0.15700
F819        F  0.50945313  0.80351899  0.04289999    -0.19100
F820        F  0.47171476  0.82887003  0.85818488    -0.22500
F821        F  0.54505997  0.82560982  0.86339141    -0.24000
F822        F  0.51876924  0.85545394  0.88089654    -0.18000
F823        F  0.38469938  0.77571101  0.83040638    -0.20500
F824        F  0.40537502  0.74255585  0.82362681    -0.21600
F825        F  0.41037626  0.76766358  0.78266843    -0.18800
F826        F  0.62951465  0.77049954  0.89629256    -0.18900
F827        F  0.60150815  0.77407673  0.94414310    -0.22700
F828        F  0.60843924  0.80238750  0.91036719    -0.24400
C829        C  0.44968385  0.79192731  0.61733728    -0.11200
C830        C  0.48860173  0.79472047  0.60638693     0.11400
C831        C  0.52796422  0.78397235  0.62472489    -0.03000
C832        C  0.52610964  0.76945191  0.65224630    -0.05700
C833        C  0.48665966  0.76598191  0.66261655    -0.16500
C834        C  0.44783254  0.77780666  0.64536558     0.02400
C835        C  0.48648376  0.80895370  0.57516415     0.12400
C836        C  0.57157526  0.78796435  0.61527792     0.63000
H837        H  0.55577178  0.76076646  0.66610767     0.12400
C838        C  0.40420725  0.77535880  0.65545180     0.55100
H839        H  0.42045588  0.80085389  0.60323737     0.08200
C840        C  0.46910692  0.80200390  0.53860319    -0.05600
C841        C  0.46473235  0.81672638  0.51029609    -0.06300
C842        C  0.47612002  0.83801460  0.51764661    -0.15900
C843        C  0.49528858  0.84478387  0.55409248    -0.01500
C844        C  0.49972609  0.83004475  0.58248174    -0.09100
C845        C  0.45341119  0.77939352  0.52960377     0.65200
H846        H  0.45018447  0.81193109  0.48215751     0.10700
C847        C  0.51213300  0.86721485  0.56281744     0.63600
H848        H  0.51283114  0.83493229  0.61072900     0.08000
F849        F  0.37025669  0.78718080  0.63304532    -0.19400
F850        F  0.40971495  0.78205443  0.69105401    -0.15700
F851        F  0.39085525  0.75446596  0.65194234    -0.19100
F852        F  0.58370755  0.80894082  0.62142528    -0.22500
F853        F  0.56677225  0.78325477  0.57890075    -0.24000
F854        F  0.60591582  0.77580791  0.63631637    -0.18000
F855        F  0.47665738  0.88104152  0.55551606    -0.20500
F856        F  0.54035287  0.87254989  0.54176433    -0.21600
F857        F  0.53565469  0.86951059  0.59924898    -0.18800
F858        F  0.44207634  0.77552097  0.49232576    -0.18900
F859        F  0.41625378  0.77551609  0.54178000    -0.22700
F860        F  0.48670561  0.76543819  0.54634820    -0.24400
C861        C  0.26142993  0.63480142  0.61001516    -0.11200
C862        C  0.27800047  0.63713288  0.64806885     0.11400
C863        C  0.25409469  0.62818816  0.67124261    -0.03000
C864        C  0.21279895  0.61837793  0.65527420    -0.05700
C865        C  0.19593490  0.61626943  0.61724700    -0.16500
C866        C  0.22079214  0.62428064  0.59409759     0.02400
C867        C  0.31573745  0.65201922  0.66221609     0.12400
C868        C  0.26972055  0.62933092  0.71273822     0.63000
H869        H  0.19334203  0.61233300  0.67274252     0.12400
C870        C  0.20308031  0.62286262  0.55276830     0.55100
H871        H  0.27972236  0.64212389  0.59279632     0.08200
C872        C  0.36079864  0.64624648  0.66743162    -0.05600
C873        C  0.39442133  0.66108587  0.68302574    -0.06300
C874        C  0.38423135  0.68137214  0.69329878    -0.15900
C875        C  0.33882646  0.68734752  0.68668952    -0.01500
C876        C  0.30539270  0.67240695  0.67143263    -0.09100
C877        C  0.37312255  0.62445895  0.65699413     0.65200
H878        H  0.42914103  0.65681553  0.68779374     0.10700
C879        C  0.32530683  0.70949253  0.69444947     0.63600
H880        H  0.27054902  0.67643058  0.66681253     0.08000
F881        F  0.19930325  0.60192718  0.54208369    -0.19400
F882        F  0.23101641  0.63286584  0.53528844    -0.15700
F883        F  0.16162081  0.63229991  0.54145625    -0.19100
F884        F  0.24401342  0.64382455  0.72490031    -0.22500
F885        F  0.31410382  0.63505420  0.72592778    -0.24000
F886        F  0.26463441  0.60976636  0.72729891    -0.18000
F887        F  0.34649649  0.72409673  0.67796281    -0.20500
F888        F  0.33677868  0.71309169  0.73174488    -0.21600
F889        F  0.27978757  0.71257699  0.68092026    -0.18800
F890        F  0.41887619  0.62156895  0.66661054    -0.10500
F891        F  0.35700270  0.62172894  0.61959170    -0.22700
F892        F  0.35476273  0.60920855  0.67454018    -0.24400
C893        C  0.71553734  0.62738929  0.85398131    -0.11200
C894        C  0.71521265  0.64938799  0.85021649     0.11400
C895        C  0.75453606  0.66116187  0.86541459    -0.03000
C896        C  0.79389576  0.65025654  0.88223483    -0.05700
C897        C  0.79505731  0.62809922  0.88503525    -0.16500
C898        C  0.75490610  0.61639145  0.87124264     0.02400
C899        C  0.67312574  0.65977562  0.83010951     0.12400
C900        C  0.75476920  0.68515591  0.86430245     0.63000
H901        H  0.82433157  0.65912652  0.89357319     0.12400
C902        C  0.75334694  0.59251016  0.87382787     0.55100
H903        H  0.68455590  0.61889953  0.84273622     0.08200
C904        C  0.66132225  0.66233887  0.79168702    -0.05600
C905        C  0.62287316  0.67397176  0.77480412    -0.06300
C906        C  0.59511460  0.68215877  0.79491606    -0.15900
C907        C  0.60573249  0.67848143  0.83324115    -0.01500
C908        C  0.64503224  0.66743712  0.85019110    -0.09100
C909        C  0.68901727  0.65261352  0.76872010     0.65200
H910        H  0.61392691  0.67662651  0.74554918     0.10700
C911        C  0.57658705  0.68651485  0.85645330     0.63600
H912        H  0.65453527  0.66480084  0.87946189     0.08000
F913        F  0.71126637  0.58450130  0.85708808    -0.19400
F914        F  0.76451292  0.58649396  0.91017329    -0.15700
F915        F  0.78287356  0.58366011  0.85682162    -0.19100
F916        F  0.72731658  0.69290855  0.88424303    -0.22500
F917        F  0.73960374  0.69218434  0.82863786    -0.24000
F918        F  0.79711282  0.69342535  0.87904463    -0.18000
F919        F  0.53558953  0.67642571  0.84619452    -0.20500
F920        F  0.57064945  0.70807095  0.85195622    -0.21600
F921        F  0.59535543  0.68267747  0.89333226    -0.18800
F922        F  0.67161068  0.65698919  0.73187598    -0.18900
F923        F  0.68988848  0.63093814  0.77294808    -0.22700
F924        F  0.73219737  0.66032875  0.77960102    -0.24400
loop_ 
_geom_bond_atom_site_label_1 
_geom_bond_atom_site_label_2 
_geom_bond_distance 
_geom_bond_site_symmetry_2 
_ccdc_geom_bond_type 
In1           O3   2.237       .  S
In1           O4   2.254       .  S
In1          O12   2.234       .  S
In1           O6   2.237       .  S
In1           O8   2.240       .  S
In1           O9   2.249       .  S
In1          O10   2.255       .  S
In1          O13   2.235       .  S
C2            O8   1.258       .  A
C2           O10   1.261       .  A
C2          C874   1.485       .  S
O3           C11   1.257       .  A
O4           C11   1.262       .  A
C5           O12   1.261       .  A
C5            O6   1.261       .  A
C5          C810   1.480       .  S
C7            O9   1.263       .  A
C7           O13   1.259       .  A
C7          C906   1.482       .  S
C11         C833   1.487       .  S
In14         O16   2.230       .  S
In14         O17   2.237       .  S
In14         O25   2.255       .  S
In14         O19   2.257       .  S
In14         O21   2.260       .  S
In14         O22   2.253       .  S
In14         O23   2.234       .  S
In14         O26   2.245       .  S
C15          O21   1.263       .  A
C15          O23   1.260       .  A
C15         C746   1.489       .  S
O16          C24   1.260       .  A
O17          C24   1.264       .  A
C18          O25   1.259       .  A
C18          O19   1.261       .  A
C18         C769   1.488       .  S
C20          O22   1.259       .  A
C20          O26   1.261       .  A
C20         C705   1.492       .  S
C24         C682   1.485       .  S
In27         O29   2.234       .  S
In27         O30   2.272       .  S
In27         O38   2.250       .  S
In27         O32   2.263       .  S
In27         O34   2.261       .  S
In27         O35   2.255       .  S
In27         O36   2.242       .  S
In27         O39   2.234       .  S
C28          O34   1.262       .  A
C28          O36   1.259       .  A
C28         C865   1.478       .  S
O29          C37   1.257       .  A
O30          C37   1.263       .  A
C31          O38   1.261       .  A
C31          O32   1.261       .  A
C31         C778   1.500       .  S
C33          O35   1.264       .  A
C33          O39   1.260       .  A
C33         C609   1.484       .  S
C37         C650   1.494       .  S
In40         O42   2.233       .  S
In40         O43   2.259       .  S
In40         O51   2.236       .  S
In40         O45   2.253       .  S
In40         O47   2.261       .  S
In40         O48   2.247       .  S
In40         O49   2.218       .  S
In40         O52   2.243       .  S
C41          O47   1.264       .  A
C41          O49   1.259       .  A
C41         C897   1.488       .  S
O42          C50   1.261       .  A
O43          C50   1.263       .  A
C44          O51   1.261       .  A
C44          O45   1.264       .  A
C44         C577   1.486       .  S
C46          O48   1.263       .  A
C46          O52   1.260       .  A
C46         C618   1.478       .  S
C50         C545   1.489   1_556  S
In53         O55   2.235       .  S
In53         O56   2.243       .  S
In53         O64   2.244       .  S
In53         O58   2.260       .  S
In53         O60   2.261       .  S
In53         O61   2.246       .  S
In53         O62   2.215       .  S
In53         O65   2.233       .  S
C54          O60   1.265       .  A
C54          O62   1.260       .  A
C54         C513   1.490       .  S
O55          C63   1.259       .  A
O56          C63   1.261       .  A
C57          O64   1.259       .  A
C57          O58   1.261       .  A
C57         C586   1.484       .  S
C59          O61   1.261       .  A
C59          O65   1.261       .  A
C59         C490   1.476   1_554  S
C63         C673   1.481       .  S
In66         O68   2.238       .  S
In66         O69   2.239       .  S
In66         O77   2.245       .  S
In66         O71   2.240       .  S
In66         O73   2.246       .  S
In66         O74   2.256       .  S
In66         O75   2.251       .  S
In66         O78   2.233       .  S
C67          O73   1.259       .  A
C67          O75   1.261       .  A
C67         C737   1.482       .  S
O68          C76   1.260       .  A
O69          C76   1.259       .  A
C70          O77   1.258       .  A
C70          O71   1.261       .  A
C70         C417   1.487       .  S
C72          O74   1.260       .  A
C72          O78   1.260       .  A
C72         C449   1.482       .  S
C76         C522   1.485       .  S
In79         O81   2.233       .  S
In79         O82   2.245       .  S
In79         O90   2.270       .  S
In79         O84   2.249       .  S
In79         O86   2.234       .  S
In79         O87   2.262       .  S
In79         O88   2.267       .  S
In79         O91   2.238       .  S
C80          O86   1.260       .  A
C80          O88   1.264       .  A
C80         C362   1.498       .  S
O81          C89   1.262       .  A
O82          C89   1.263       .  A
C83          O90   1.264       .  A
C83          O84   1.260       .  A
C83         C385   1.492       .  S
C85          O87   1.263       .  A
C85          O91   1.259       .  A
C85         C321   1.491       .  S
C89         C426   1.485   1_556  S
In92         O94   2.208       .  S
In92         O95   2.236       .  S
In92        O103   2.244       .  S
In92         O97   2.270       .  S
In92         O99   2.270       .  S
In92        O100   2.240       .  S
In92        O101   2.224       .  S
In92        O104   2.241       .  S
C93          O99   1.264       .  A
C93         O101   1.255       .  A
C93         C289   1.476       .  S
O94         C102   1.263       .  A
O95         C102   1.262       .  A
C96         O103   1.259       .  A
C96          O97   1.264       .  A
C96         C394   1.490       .  S
C98         O100   1.257       .  A
C98         O104   1.260       .  A
C98         C801   1.474   1_554  S
C102        C257   1.478       .  S
In105       O107   2.246       .  S
In105       O108   2.259   1_455  S
In105       O116   2.242   1_455  S
In105       O110   2.266       .  S
In105       O112   2.260       .  S
In105       O113   2.249   1_455  S
In105       O114   2.270       .  S
In105       O117   2.245   1_455  S
C106        O112   1.260       .  A
C106        O114   1.258       .  A
C106        C353   1.491       .  S
O107        C115   1.259       .  A
O108        C115   1.262   1_655  A
C109        O116   1.259   1_455  A
C109        O110   1.262       .  A
C109        C714   1.490       .  S
C111        O113   1.262       .  A
C111        O117   1.259       .  A
C111        C225   1.486       .  S
C115        C481   1.494       .  S
In118       O120   2.243       .  S
In118       O121   2.248       .  S
In118       O129   2.221       .  S
In118       O123   2.251       .  S
In118       O125   2.259       .  S
In118       O126   2.234       .  S
In118       O127   2.239       .  S
In118       O130   2.251       .  S
C119        O125   1.261       .  A
C119        O127   1.260       .  A
C119        C234   1.490       .  S
O120        C128   1.260       .  A
O121        C128   1.262       .  A
C122        O129   1.259       .  A
C122        O123   1.262       .  A
C122        C202   1.476       .  S
C124        O126   1.258       .  A
C124        O130   1.261       .  A
C124        C330   1.488       .  S
C128        C458   1.489       .  S
In131       O133   2.218       .  S
In131       O134   2.240       .  S
In131       O142   2.225       .  S
In131       O136   2.236       .  S
In131       O138   2.256       .  S
In131       O139   2.237       .  S
In131       O140   2.222       .  S
In131       O143   2.238       .  S
C132        O138   1.261       .  A
C132        O140   1.259       .  A
C132        C170   1.485       .  S
O133        C141   1.261       .  A
O134        C141   1.260       .  A
C135        O142   1.261       .  A
C135        O136   1.261       .  A
C135        C193   1.476       .  S
C137        O139   1.259       .  A
C137        O143   1.259       .  A
C137        C842   1.471       .  S
C141        C266   1.481       .  S
In144       O146   2.244   1_455  S
In144       O147   2.236   1_455  S
In144       O155   2.250       .  S
In144       O149   2.257       .  S
In144       O151   2.248       .  S
In144       O152   2.250   1_455  S
In144       O153   2.243       .  S
In144       O156   2.254       .  S
C145        O151   1.261       .  A
C145        O153   1.261       .  A
C145        C161   1.489       .  S
O146        C154   1.259       .  A
O147        C154   1.260       .  A
C148        O155   1.261       .  A
C148        O149   1.257       .  A
C148        C554   1.494       .  S
C150        O152   1.260   1_455  A
C150        O156   1.262       .  A
C150        C641   1.490       .  S
C154        C298   1.486       .  S
C157        C158   1.399       .  A
C157        C162   1.406       .  A
C157        H167   1.083       .  S
C158        C163   1.480       .  S
C158        C159   1.411       .  A
C159        C160   1.407       .  A
C159        C164   1.519       .  S
C160        C161   1.409       .  A
C160        H165   1.083       .  S
C161        C162   1.423       .  A
C162        C166   1.519       .  S
C163        C168   1.414       .  A
C163        C172   1.402       .  A
C164        F180   1.383       .  S
C164        F181   1.382       .  S
C164        F182   1.384       .  S
C166        F177   1.382       .  S
C166        F178   1.385       .  S
C166        F179   1.384       .  S
C168        C169   1.401       .  A
C168        C173   1.522       .  S
C169        C170   1.405       .  A
C169        H174   1.083       .  S
C170        C171   1.422       .  A
C171        C172   1.411       .  A
C171        C175   1.519       .  S
C172        H176   1.083       .  S
C173        F186   1.385       .  S
C173        F187   1.382       .  S
C173        F188   1.381       .  S
C175        F183   1.384       .  S
C175        F184   1.383       .  S
C175        F185   1.385       .  S
C189        C190   1.401       .  A
C189        C194   1.406       .  A
C189        H199   1.083       .  S
C190        C195   1.477       .  S
C190        C191   1.413       .  A
C191        C192   1.402       .  A
C191        C196   1.520       .  S
C192        C193   1.404       .  A
C192        H197   1.083       .  S
C193        C194   1.419       .  A
C194        C198   1.519       .  S
C195        C200   1.413   1_565  A
C195        C204   1.401   1_565  A
C196        F212   1.382       .  S
C196        F213   1.382       .  S
C196        F214   1.385       .  S
C198        F209   1.385       .  S
C198        F210   1.383       .  S
C198        F211   1.382       .  S
C200        C201   1.403       .  A
C200        C205   1.520       .  S
C201        C202   1.405       .  A
C201        H206   1.083       .  S
C202        C203   1.417       .  A
C203        C204   1.405       .  A
C203        C207   1.518       .  S
C204        H208   1.083   1_545  S
C205        F218   1.385       .  S
C205        F219   1.382       .  S
C205        F220   1.382       .  S
C207        F215   1.385       .  S
C207        F216   1.383       .  S
C207        F217   1.383       .  S
C221        C222   1.400       .  A
C221        C226   1.408       .  A
C221        H231   1.083       .  S
C222        C227   1.485       .  S
C222        C223   1.415       .  A
C223        C224   1.407       .  A
C223        C228   1.519       .  S
C224        C225   1.405       .  A
C224        H229   1.083       .  S
C225        C226   1.423       .  A
C226        C230   1.520       .  S
C227        C232   1.413       .  A
C227        C236   1.401       .  A
C228        F244   1.382       .  S
C228        F245   1.382       .  S
C228        F246   1.385       .  S
C230        F241   1.383       .  S
C230        F242   1.385       .  S
C230        F243   1.382       .  S
C232        C233   1.405       .  A
C232        C237   1.520       .  S
C233        C234   1.407       .  A
C233        H238   1.083       .  S
C234        C235   1.423       .  A
C235        C236   1.410       .  A
C235        C239   1.519       .  S
C236        H240   1.083       .  S
C237        F250   1.385       .  S
C237        F251   1.382       .  S
C237        F252   1.382       .  S
C239        F247   1.383       .  S
C239        F248   1.383       .  S
C239        F249   1.385       .  S
C253        C254   1.401       .  A
C253        C258   1.406       .  A
C253        H263   1.083       .  S
C254        C259   1.475       .  S
C254        C255   1.412       .  A
C255        C256   1.399       .  A
C255        C260   1.520       .  S
C256        C257   1.404       .  A
C256        H261   1.083       .  S
C257        C258   1.422       .  A
C258        C262   1.520       .  S
C259        C264   1.412       .  A
C259        C268   1.400       .  A
C260        F276   1.382       .  S
C260        F277   1.382       .  S
C260        F278   1.385       .  S
C262        F273   1.385       .  S
C262        F274   1.383       .  S
C262        F275   1.383       .  S
C264        C265   1.400       .  A
C264        C269   1.521       .  S
C265        C266   1.406       .  A
C265        H270   1.082       .  S
C266        C267   1.422       .  A
C267        C268   1.405       .  A
C267        C271   1.520       .  S
C268        H272   1.083       .  S
C269        F282   1.385       .  S
C269        F283   1.382       .  S
C269        F284   1.383       .  S
C271        F279   1.383       .  S
C271        F280   1.384       .  S
C271        F281   1.385       .  S
C285        C286   1.400       .  A
C285        C290   1.403       .  A
C285        H295   1.084       .  S
C286        C291   1.479       .  S
C286        C287   1.420       .  A
C287        C288   1.406       .  A
C287        C292   1.519       .  S
C288        C289   1.401       .  A
C288        H293   1.085       .  S
C289        C290   1.419       .  A
C290        C294   1.520       .  S
C291        C296   1.411       .  A
C291        C300   1.400       .  A
C292        F308   1.383       .  S
C292        F309   1.381       .  S
C292        F310   1.383       .  S
C294        F305   1.383       .  S
C294        F306   1.385       .  S
C294        F307   1.382       .  S
C296        C297   1.404       .  A
C296        C301   1.518       .  S
C297        C298   1.407       .  A
C297        H302   1.083       .  S
C298        C299   1.424       .  A
C299        C300   1.408       .  A
C299        C303   1.521       .  S
C300        H304   1.083       .  S
C301        F314   1.384       .  S
C301        F315   1.383       .  S
C301        F316   1.382       .  S
C303        F311   1.383       .  S
C303        F312   1.382       .  S
C303        F313   1.385       .  S
C317        C318   1.400       .  A
C317        C322   1.406       .  A
C317        H327   1.083       .  S
C318        C323   1.482       .  S
C318        C319   1.417       .  A
C319        C320   1.408       .  A
C319        C324   1.521       .  S
C320        C321   1.408       .  A
C320        H325   1.084       .  S
C321        C322   1.423       .  A
C322        C326   1.519       .  S
C323        C328   1.413       .  A
C323        C332   1.400       .  A
C324        F340   1.384       .  S
C324        F341   1.382       .  S
C324        F342   1.383       .  S
C326        F337   1.385       .  S
C326        F338   1.383       .  S
C326        F339   1.383       .  S
C328        C329   1.406       .  A
C328        C333   1.519       .  S
C329        C330   1.407       .  A
C329        H334   1.083       .  S
C330        C331   1.424       .  A
C331        C332   1.408       .  A
C331        C335   1.520       .  S
C332        H336   1.083       .  S
C333        F346   1.385       .  S
C333        F347   1.383       .  S
C333        F348   1.383       .  S
C335        F343   1.384       .  S
C335        F344   1.384       .  S
C335        F345   1.383       .  S
C349        C350   1.403       .  A
C349        C354   1.412       .  A
C349        H359   1.083       .  S
C350        C355   1.492       .  S
C350        C351   1.415       .  A
C351        C352   1.409       .  A
C351        C356   1.519       .  S
C352        C353   1.406       .  A
C352        H357   1.083       .  S
C353        C354   1.422       .  A
C354        C358   1.519       .  S
C355        C360   1.414       .  A
C355        C364   1.403       .  A
C356        F372   1.382       .  S
C356        F373   1.382       .  S
C356        F374   1.384       .  S
C358        F369   1.384       .  S
C358        F370   1.385       .  S
C358        F371   1.383       .  S
C360        C361   1.406       .  A
C360        C365   1.521       .  S
C361        C362   1.409       .  A
C361        H366   1.082       .  S
C362        C363   1.424       .  A
C363        C364   1.415       .  A
C363        C367   1.519       .  S
C364        H368   1.083       .  S
C365        F378   1.384       .  S
C365        F379   1.382       .  S
C365        F380   1.382       .  S
C367        F375   1.383       .  S
C367        F376   1.384       .  S
C367        F377   1.384       .  S
C381        C382   1.402   1_544  A
C381        C386   1.411       .  A
C381        H391   1.083       .  S
C382        C387   1.493   1_556  S
C382        C383   1.417       .  A
C383        C384   1.411   1_565  A
C383        C388   1.519       .  S
C384        C385   1.406       .  A
C384        H389   1.083       .  S
C385        C386   1.423   1_556  A
C386        C390   1.520       .  S
C387        C392   1.417   1_554  A
C387        C396   1.402       .  A
C388        F404   1.383       .  S
C388        F405   1.382       .  S
C388        F406   1.384       .  S
C390        F401   1.382       .  S
C390        F402   1.385       .  S
C390        F403   1.384       .  S
C392        C393   1.411   1_556  A
C392        C397   1.519       .  S
C393        C394   1.405       .  A
C393        H398   1.083       .  S
C394        C395   1.422       .  A
C395        C396   1.410       .  A
C395        C399   1.520       .  S
C396        H400   1.083       .  S
C397        F410   1.384       .  S
C397        F411   1.383       .  S
C397        F412   1.382       .  S
C399        F407   1.385       .  S
C399        F408   1.384       .  S
C399        F409   1.382       .  S
C413        C414   1.401       .  A
C413        C418   1.408       .  A
C413        H423   1.083       .  S
C414        C419   1.482       .  S
C414        C415   1.412       .  A
C415        C416   1.404       .  A
C415        C420   1.519       .  S
C416        C417   1.407       .  A
C416        H421   1.082       .  S
C417        C418   1.424       .  A
C418        C422   1.521       .  S
C419        C424   1.414       .  A
C419        C428   1.400       .  A
C420        F436   1.382       .  S
C420        F437   1.382       .  S
C420        F438   1.384       .  S
C422        F433   1.385       .  S
C422        F434   1.384       .  S
C422        F435   1.383       .  S
C424        C425   1.406       .  A
C424        C429   1.520       .  S
C425        C426   1.406       .  A
C425        H430   1.083       .  S
C426        C427   1.422       .  A
C427        C428   1.407       .  A
C427        C431   1.519   1_554  S
C428        H432   1.083       .  S
C429        F442   1.384       .  S
C429        F443   1.382       .  S
C429        F444   1.382       .  S
C431        F439   1.383       .  S
C431        F440   1.383       .  S
C431        F441   1.385       .  S
C445        C446   1.403       .  A
C445        C450   1.411       .  A
C445        H455   1.083       .  S
C446        C451   1.485       .  S
C446        C447   1.416       .  A
C447        C448   1.402       .  A
C447        C452   1.520       .  S
C448        C449   1.403       .  A
C448        H453   1.083       .  S
C449        C450   1.420       .  A
C450        C454   1.518       .  S
C451        C456   1.414       .  A
C451        C460   1.400       .  A
C452        F468   1.382       .  S
C452        F469   1.383       .  S
C452        F470   1.385       .  S
C454        F465   1.383       .  S
C454        F466   1.385       .  S
C454        F467   1.383       .  S
C456        C457   1.407       .  A
C456        C461   1.519       .  S
C457        C458   1.407       .  A
C457        H462   1.083       .  S
C458        C459   1.423       .  A
C459        C460   1.408       .  A
C459        C463   1.519       .  S
C460        H464   1.083       .  S
C461        F474   1.385       .  S
C461        F475   1.383       .  S
C461        F476   1.382       .  S
C463        F471   1.384       .  S
C463        F472   1.382       .  S
C463        F473   1.385       .  S
C477        C478   1.398   1_455  A
C477        C482   1.407       .  A
C477        H487   1.083       .  S
C478        C483   1.484   1_655  S
C478        C479   1.413       .  A
C479        C480   1.409       .  A
C479        C484   1.519       .  S
C480        C481   1.409   1_655  A
C480        H485   1.082       .  S
C481        C482   1.425       .  A
C482        C486   1.518       .  S
C483        C488   1.417       .  A
C483        C492   1.404   1_455  A
C484        F500   1.382       .  S
C484        F501   1.382       .  S
C484        F502   1.384       .  S
C486        F497   1.385       .  S
C486        F498   1.383       .  S
C486        F499   1.383       .  S
C488        C489   1.403       .  A
C488        C493   1.521       .  S
C489        C490   1.401       .  A
C489        H494   1.084       .  S
C490        C491   1.416   1_455  A
C491        C492   1.411       .  A
C491        C495   1.518       .  S
C492        H496   1.083       .  S
C493        F506   1.384       .  S
C493        F507   1.382       .  S
C493        F508   1.382       .  S
C495        F503   1.384       .  S
C495        F504   1.383       .  S
C495        F505   1.384       .  S
C509        C510   1.401       .  A
C509        C514   1.409       .  A
C509        H519   1.083       .  S
C510        C515   1.480       .  S
C510        C511   1.413       .  A
C511        C512   1.402       .  A
C511        C516   1.522       .  S
C512        C513   1.409       .  A
C512        H517   1.082       .  S
C513        C514   1.423       .  A
C514        C518   1.518       .  S
C515        C520   1.412       .  A
C515        C524   1.400       .  A
C516        F532   1.382       .  S
C516        F533   1.382       .  S
C516        F534   1.385       .  S
C518        F529   1.385       .  S
C518        F530   1.383       .  S
C518        F531   1.383       .  S
C520        C521   1.405       .  A
C520        C525   1.520       .  S
C521        C522   1.408       .  A
C521        H526   1.083       .  S
C522        C523   1.422       .  A
C523        C524   1.406       .  A
C523        C527   1.519       .  S
C524        H528   1.083       .  S
C525        F538   1.385       .  S
C525        F539   1.382       .  S
C525        F540   1.382       .  S
C527        F535   1.384       .  S
C527        F536   1.383       .  S
C527        F537   1.385       .  S
C541        C542   1.402   1_455  A
C541        C546   1.410       .  A
C541        H551   1.083       .  S
C542        C547   1.487       .  S
C542        C543   1.414       .  A
C543        C544   1.405       .  A
C543        C548   1.520       .  S
C544        C545   1.407       .  A
C544        H549   1.083       .  S
C545        C546   1.421   1_655  A
C546        C550   1.518       .  S
C547        C552   1.413   1_655  A
C547        C556   1.401       .  A
C548        F564   1.382       .  S
C548        F565   1.382       .  S
C548        F566   1.385       .  S
C550        F561   1.385       .  S
C550        F562   1.382   1_554  S
C550        F563   1.383       .  S
C552        C553   1.405       .  A
C552        C557   1.520       .  S
C553        C554   1.407       .  A
C553        H558   1.082       .  S
C554        C555   1.427   1_455  A
C555        C556   1.411       .  A
C555        C559   1.521       .  S
C556        H560   1.083       .  S
C557        F570   1.384       .  S
C557        F571   1.382       .  S
C557        F572   1.383   1_455  S
C559        F567   1.383   1_655  S
C559        F568   1.382       .  S
C559        F569   1.385       .  S
C573        C574   1.400   1_456  A
C573        C578   1.406   1_455  A
C573        H583   1.083       .  S
C574        C579   1.488   1_655  S
C574        C575   1.417       .  A
C575        C576   1.410   1_554  A
C575        C580   1.519       .  S
C576        C577   1.405       .  A
C576        H581   1.083   1_556  S
C577        C578   1.421       .  A
C578        C582   1.519   1_655  S
C579        C584   1.417   1_454  A
C579        C588   1.402       .  A
C580        F596   1.382       .  S
C580        F597   1.382       .  S
C580        F598   1.385       .  S
C582        F593   1.385       .  S
C582        F594   1.382       .  S
C582        F595   1.383   1_455  S
C584        C585   1.407   1_656  A
C584        C589   1.520       .  S
C585        C586   1.405       .  A
C585        H590   1.083   1_454  S
C586        C587   1.419       .  A
C587        C588   1.409       .  A
C587        C591   1.518       .  S
C588        H592   1.083       .  S
C589        F602   1.385       .  S
C589        F603   1.382       .  S
C589        F604   1.382       .  S
C591        F599   1.382       .  S
C591        F600   1.384       .  S
C591        F601   1.385       .  S
C605        C606   1.400   1_455  A
C605        C610   1.405       .  A
C605        H615   1.083       .  S
C606        C611   1.486       .  S
C606        C607   1.416       .  A
C607        C608   1.410       .  A
C607        C612   1.519       .  S
C608        C609   1.406   1_655  A
C608        H613   1.083       .  S
C609        C610   1.421       .  A
C610        C614   1.520       .  S
C611        C616   1.417       .  A
C611        C620   1.402       .  A
C612        F628   1.382       .  S
C612        F629   1.382       .  S
C612        F630   1.385       .  S
C614        F625   1.383       .  S
C614        F626   1.385       .  S
C614        F627   1.383       .  S
C616        C617   1.407       .  A
C616        C621   1.520       .  S
C617        C618   1.403       .  A
C617        H622   1.082       .  S
C618        C619   1.417       .  A
C619        C620   1.407       .  A
C619        C623   1.518       .  S
C620        H624   1.083       .  S
C621        F634   1.385       .  S
C621        F635   1.382   1_655  S
C621        F636   1.382       .  S
C623        F631   1.382       .  S
C623        F632   1.384       .  S
C623        F633   1.385       .  S
C637        C638   1.401   1_655  A
C637        C642   1.409       .  A
C637        H647   1.083       .  S
C638        C643   1.487       .  S
C638        C639   1.416       .  A
C639        C640   1.409       .  A
C639        C644   1.520       .  S
C640        C641   1.407       .  A
C640        H645   1.083       .  S
C641        C642   1.422   1_455  A
C642        C646   1.519       .  S
C643        C648   1.415       .  A
C643        C652   1.398       .  A
C644        F660   1.382       .  S
C644        F661   1.382       .  S
C644        F662   1.385       .  S
C646        F657   1.382       .  S
C646        F658   1.385       .  S
C646        F659   1.384       .  S
C648        C649   1.412       .  A
C648        C653   1.519       .  S
C649        C650   1.410       .  A
C649        H654   1.083       .  S
C650        C651   1.424       .  A
C651        C652   1.406       .  A
C651        C655   1.520       .  S
C652        H656   1.083       .  S
C653        F666   1.385   1_455  S
C653        F667   1.382   1_455  S
C653        F668   1.382       .  S
C655        F663   1.385       .  S
C655        F664   1.384       .  S
C655        F665   1.383       .  S
C669        C670   1.400   1_455  A
C669        C674   1.405       .  A
C669        H679   1.083       .  S
C670        C675   1.480       .  S
C670        C671   1.415       .  A
C671        C672   1.405       .  A
C671        C676   1.520       .  S
C672        C673   1.405   1_655  A
C672        H677   1.083       .  S
C673        C674   1.421       .  A
C674        C678   1.520       .  S
C675        C680   1.413       .  A
C675        C684   1.399       .  A
C676        F692   1.381       .  S
C676        F693   1.383       .  S
C676        F694   1.385       .  S
C678        F689   1.385       .  S
C678        F690   1.382       .  S
C678        F691   1.384       .  S
C680        C681   1.405       .  A
C680        C685   1.519   1_655  S
C681        C682   1.408       .  A
C681        H686   1.083       .  S
C682        C683   1.423       .  A
C683        C684   1.404       .  A
C683        C687   1.520       .  S
C684        H688   1.083       .  S
C685        F698   1.385       .  S
C685        F699   1.382       .  S
C685        F700   1.382   1_455  S
C687        F695   1.383       .  S
C687        F696   1.383       .  S
C687        F697   1.385       .  S
C701        C702   1.400   1_455  A
C701        C706   1.411   1_455  A
C701        H711   1.083       .  S
C702        C707   1.484       .  S
C702        C703   1.413       .  A
C703        C704   1.405       .  A
C703        C708   1.519       .  S
C704        C705   1.407       .  A
C704        H709   1.083       .  S
C705        C706   1.426       .  A
C706        C710   1.519   1_655  S
C707        C712   1.417       .  A
C707        C716   1.403   1_655  A
C708        F724   1.383       .  S
C708        F725   1.382       .  S
C708        F726   1.385       .  S
C710        F721   1.383   1_455  S
C710        F722   1.385       .  S
C710        F723   1.383       .  S
C712        C713   1.403       .  A
C712        C717   1.521       .  S
C713        C714   1.405   1_655  A
C713        H718   1.084       .  S
C714        C715   1.421       .  A
C715        C716   1.412       .  A
C715        C719   1.517       .  S
C716        H720   1.083       .  S
C717        F730   1.383       .  S
C717        F731   1.383       .  S
C717        F732   1.381       .  S
C719        F727   1.384       .  S
C719        F728   1.383       .  S
C719        F729   1.381       .  S
C733        C734   1.402       .  A
C733        C738   1.408       .  A
C733        H743   1.083       .  S
C734        C739   1.486       .  S
C734        C735   1.415       .  A
C735        C736   1.407       .  A
C735        C740   1.520       .  S
C736        C737   1.405       .  A
C736        H741   1.083       .  S
C737        C738   1.419       .  A
C738        C742   1.519       .  S
C739        C744   1.414       .  A
C739        C748   1.402       .  A
C740        F756   1.382       .  S
C740        F757   1.382       .  S
C740        F758   1.384       .  S
C742        F753   1.382       .  S
C742        F754   1.385       .  S
C742        F755   1.384       .  S
C744        C745   1.406       .  A
C744        C749   1.521       .  S
C745        C746   1.408       .  A
C745        H750   1.083       .  S
C746        C747   1.421       .  A
C747        C748   1.410       .  A
C747        C751   1.518       .  S
C748        H752   1.083       .  S
C749        F762   1.385       .  S
C749        F763   1.382       .  S
C749        F764   1.382       .  S
C751        F759   1.385       .  S
C751        F760   1.382       .  S
C751        F761   1.384       .  S
C765        C766   1.403       .  A
C765        C770   1.409       .  A
C765        H775   1.083       .  S
C766        C771   1.491       .  S
C766        C767   1.417       .  A
C767        C768   1.410       .  A
C767        C772   1.520   1_655  S
C768        C769   1.406       .  A
C768        H773   1.083       .  S
C769        C770   1.419       .  A
C770        C774   1.519       .  S
C771        C776   1.414       .  A
C771        C780   1.401   1_655  A
C772        F788   1.382       .  S
C772        F789   1.382   1_455  S
C772        F790   1.385       .  S
C774        F785   1.383       .  S
C774        F786   1.384       .  S
C774        F787   1.384       .  S
C776        C777   1.409       .  A
C776        C781   1.520       .  S
C777        C778   1.410   1_655  A
C777        H782   1.082       .  S
C778        C779   1.426       .  A
C779        C780   1.411       .  A
C779        C783   1.520       .  S
C780        H784   1.083       .  S
C781        F794   1.385       .  S
C781        F795   1.382       .  S
C781        F796   1.382       .  S
C783        F791   1.385       .  S
C783        F792   1.383       .  S
C783        F793   1.383       .  S
C797        C798   1.400       .  A
C797        C802   1.405       .  A
C797        H807   1.083       .  S
C798        C803   1.477       .  S
C798        C799   1.414       .  A
C799        C800   1.404       .  A
C799        C804   1.519       .  S
C800        C801   1.402       .  A
C800        H805   1.083       .  S
C801        C802   1.420       .  A
C802        C806   1.520   1_556  S
C803        C808   1.414       .  A
C803        C812   1.400       .  A
C804        F820   1.382       .  S
C804        F821   1.382       .  S
C804        F822   1.385       .  S
C806        F817   1.384       .  S
C806        F818   1.385       .  S
C806        F819   1.382       .  S
C808        C809   1.404       .  A
C808        C813   1.521       .  S
C809        C810   1.405       .  A
C809        H814   1.083       .  S
C810        C811   1.421       .  A
C811        C812   1.406       .  A
C811        C815   1.519       .  S
C812        H816   1.083       .  S
C813        F826   1.384       .  S
C813        F827   1.382       .  S
C813        F828   1.382       .  S
C815        F823   1.385       .  S
C815        F824   1.383       .  S
C815        F825   1.384       .  S
C829        C830   1.398       .  A
C829        C834   1.405       .  A
C829        H839   1.083       .  S
C830        C835   1.478       .  S
C830        C831   1.412       .  A
C831        C832   1.406       .  A
C831        C836   1.519       .  S
C832        C833   1.408       .  A
C832        H837   1.083       .  S
C833        C834   1.424       .  A
C834        C838   1.519       .  S
C835        C840   1.415       .  A
C835        C844   1.402       .  A
C836        F852   1.382       .  S
C836        F853   1.382       .  S
C836        F854   1.384       .  S
C838        F849   1.385       .  S
C838        F850   1.383       .  S
C838        F851   1.381       .  S
C840        C841   1.403       .  A
C840        C845   1.520       .  S
C841        C842   1.402       .  A
C841        H846   1.084       .  S
C842        C843   1.415       .  A
C843        C844   1.406       .  A
C843        C847   1.518       .  S
C844        H848   1.083       .  S
C845        F858   1.385       .  S
C845        F859   1.382       .  S
C845        F860   1.382       .  S
C847        F855   1.381       .  S
C847        F856   1.384       .  S
C847        F857   1.385       .  S
C861        C862   1.403       .  A
C861        C866   1.409       .  A
C861        H871   1.083       .  S
C862        C867   1.485       .  S
C862        C863   1.418       .  A
C863        C864   1.405       .  A
C863        C868   1.519       .  S
C864        C865   1.402       .  A
C864        H869   1.084       .  S
C865        C866   1.416       .  A
C866        C870   1.518       .  S
C867        C872   1.414       .  A
C867        C876   1.401       .  A
C868        F884   1.382       .  S
C868        F885   1.382       .  S
C868        F886   1.384       .  S
C870        F881   1.382       .  S
C870        F882   1.384       .  S
C870        F883   1.384       .  S
C872        C873   1.408       .  A
C872        C877   1.517       .  S
C873        C874   1.406       .  A
C873        H878   1.083       .  S
C874        C875   1.421       .  A
C875        C876   1.406       .  A
C875        C879   1.519       .  S
C876        H880   1.083       .  S
C877        F890   1.385       .  S
C877        F891   1.382       .  S
C877        F892   1.383       .  S
C879        F887   1.382       .  S
C879        F888   1.382       .  S
C879        F889   1.385       .  S
C893        C894   1.401       .  A
C893        C898   1.410       .  A
C893        H903   1.083       .  S
C894        C899   1.482       .  S
C894        C895   1.412       .  A
C895        C896   1.403       .  A
C895        C900   1.521       .  S
C896        C897   1.408       .  A
C896        H901   1.083       .  S
C897        C898   1.422       .  A
C898        C902   1.518       .  S
C899        C904   1.414       .  A
C899        C908   1.400       .  A
C900        F916   1.382       .  S
C900        F917   1.382       .  S
C900        F918   1.385       .  S
C902        F913   1.385       .  S
C902        F914   1.383       .  S
C902        F915   1.383       .  S
C904        C905   1.406       .  A
C904        C909   1.519       .  S
C905        C906   1.404       .  A
C905        H910   1.083       .  S
C906        C907   1.422       .  A
C907        C908   1.407       .  A
C907        C911   1.520       .  S
C908        H912   1.083       .  S
C909        F922   1.384       .  S
C909        F923   1.382       .  S
C909        F924   1.382       .  S
C911        F919   1.383       .  S
C911        F920   1.384       .  S
C911        F921   1.385       .  S
