geometry optimzed in LAMMPS
_audit_creation_date              2020-11-30 
_audit_creation_method            'lammps2cif' 
_symmetry_space_group_name_H-M    'P1' 
_symmetry_Int_Tables_number       1 
_symmetry_cell_setting            triclinic 
loop_ 
_symmetry_equiv_pos_as_xyz 
  x,y,z 
_cell_length_a                    29.3887603 
_cell_length_b                    63.60823170273523 
_cell_length_c                    39.29943668375421 
_cell_angle_alpha                 90.23862942671943 
_cell_angle_beta                  89.33944017797552 
_cell_angle_gamma                 89.42106452469703 
loop_ 
_atom_site_label 
_atom_site_type_symbol 
_atom_site_fract_x 
_atom_site_fract_y 
_atom_site_fract_z 
_atom_site_charge 
C1          C  0.32755209  0.32732614  0.23289220     0.80200
N2          N  0.30872769  0.34692696  0.23106618    -0.78100
C3          C  0.26272512  0.34955077  0.23246872     0.82600
N4          N  0.23597145  0.33238289  0.23589024    -0.78100
C5          C  0.25442119  0.31277054  0.23820383     0.82700
N6          N  0.30040918  0.31033226  0.23683607    -0.79800
C7          C  0.32561461  0.68457480  0.25399226     0.80200
N8          N  0.30622991  0.66514017  0.25355961    -0.78100
C9          C  0.26017744  0.66319263  0.25380111     0.82600
N10         N  0.23340682  0.68060266  0.25385045    -0.78100
C11         C  0.25195845  0.70002377  0.25375395     0.82700
N12         N  0.29806214  0.70197817  0.25419198    -0.79800
C13         C  0.67095845  0.68504078  0.24745318     0.80200
N14         N  0.69087278  0.66556486  0.24715358    -0.78100
C15         C  0.73700106  0.66345070  0.24814214     0.82600
N16         N  0.76278842  0.68096179  0.24934799    -0.78100
C17         C  0.74363702  0.70040403  0.24881691     0.82700
N18         N  0.69754907  0.70246020  0.24796723    -0.79800
O19         O  0.95649625  0.48453493  0.23164589    -0.74500
O20         O  0.04456885  0.52862969  0.23007441    -0.74500
O21         O  0.04815908  0.48576597  0.23001077    -0.74600
O22         O  0.95284365  0.52736953  0.23193488    -0.74600
O23         O  0.95308742  0.52694346  0.28857313    -0.74500
O24         O  0.05044652  0.48621771  0.28658996    -0.74500
O25         O  0.04524183  0.52889678  0.28684970    -0.74500
O26         O  0.95825326  0.48432719  0.28841638    -0.74600
Ni27       Ni  0.00048162  0.50656534  0.22890782     1.25400
Ni28       Ni  0.00178771  0.50659582  0.28963105     1.25400
C29         C  0.94335981  0.47705031  0.26027235     0.87700
C30         C  0.05890778  0.53618876  0.25820168     0.87600
C31         C  0.06488372  0.47897242  0.25791961     0.87700
C32         C  0.93755208  0.53423366  0.26060526     0.87800
C33         C  0.66863012  0.33271054  0.24590957     0.80200
N34         N  0.69661706  0.31563981  0.24803417    -0.78100
C35         C  0.74150032  0.31788609  0.25419746     0.82600
N36         N  0.75934689  0.33725374  0.25670797    -0.78100
C37         C  0.73242092  0.35451281  0.25369560     0.82700
N38         N  0.68688093  0.35227337  0.24885178    -0.79800
C39         C  0.99514894  0.20809953  0.25669203    -0.02500
C40         C  0.99583913  0.81054902  0.24252584    -0.02500
C41         C  0.98161034  0.12112374  0.47659469     0.80200
N42         N  0.98313457  0.09988216  0.47495241    -0.78100
C43         C  0.98636653  0.08836838  0.50383897     0.82600
N44         N  0.98871355  0.09832790  0.03453047    -0.78100
C45         C  0.98720458  0.11970549  0.03645433     0.82700
N46         N  0.98340576  0.13097712  0.50723012    -0.79800
C47         C  0.99715997  0.89741764  0.02132924     0.80200
N48         N  0.99484121  0.88716675  0.99099115    -0.78100
C49         C  0.99394615  0.89815832  0.46132045     0.82600
N50         N  0.99574653  0.91944995  0.46239374    -0.78100
C51         C  0.99719681  0.92995239  0.99241223     0.82700
N52         N  0.99776486  0.91880383  0.02194504    -0.79800
C53         C  0.98956039  0.06524356  0.50136300     0.01300
C54         C  0.95479310  0.05266230  0.01518101     0.04100
C55         C  0.95875075  0.03063980  0.01379231    -0.11900
C56         C  0.99570428  0.02110486  0.99632892     0.23400
C57         C  0.02936624  0.03364972  0.48095512    -0.12500
C58         C  0.02672099  0.05567973  0.48401112     0.04800
C59         C  0.99847625  0.99785149  0.99383109     0.27200
C60         C  0.02635286  0.98643727  0.51621735    -0.13200
C61         C  0.02644335  0.96429859  0.51564828     0.05300
C62         C  0.99783060  0.95337679  0.99293173    -0.09200
C63         C  0.97020847  0.96503664  0.97016634     0.06200
C64         C  0.97131326  0.98715069  0.97032038    -0.13500
Br65       Br  0.07871849  0.02061389  0.45556111    -0.05600
Br66       Br  0.89961307  0.06535774  0.03282735     0.00000
Br67       Br  0.06738939  0.94945264  0.54550398     0.00500
Br68       Br  0.93526786  0.00304661  0.93839464    -0.03900
Br69       Br  0.07439759  0.07268961  0.46468351     0.00600
Br70       Br  0.91363402  0.01340456  0.03595164    -0.03200
Br71       Br  0.06423020  0.00140373  0.54781957    -0.04100
Br72       Br  0.92798284  0.95132466  0.94010490    -0.00100
C73         C  0.98966230  0.88733522  0.42811787     0.01300
C74         C  0.02246942  0.89049197  0.40214151     0.04100
C75         C  0.01832580  0.88025656  0.37052675    -0.11900
C76         C  0.98189087  0.86647625  0.36474072     0.23400
C77         C  0.94782801  0.86415408  0.39000300    -0.12500
C78         C  0.95161265  0.87462219  0.42154066     0.04800
C79         C  0.98348081  0.85256018  0.33409306     0.27200
C80         C  0.95898394  0.85730232  0.30466493    -0.13200
C81         C  0.96172246  0.84380369  0.27581902     0.05300
C82         C  0.99421946  0.82648937  0.27420771    -0.09200
C83         C  0.02504795  0.82536940  0.30273527     0.06200
C84         C  0.01434933  0.83572967  0.33347006    -0.13500
Br85       Br  0.89623094  0.84651401  0.38159863    -0.05600
Br86       Br  0.07474080  0.90785269  0.41035430     0.00000
Br87       Br  0.91555315  0.84867633  0.24206742     0.00500
Br88       Br  0.04441233  0.82764174  0.37514351    -0.03900
Br89       Br  0.90375444  0.87215723  0.45532923     0.00600
Br90       Br  0.06334886  0.88455810  0.33509703    -0.03200
Br91       Br  0.91976402  0.88189603  0.30504165    -0.04100
Br92       Br  0.08869496  0.81663573  0.30111553    -0.00100
C93         C  0.99959595  0.88541357  0.05371652     0.01300
C94         C  0.96670992  0.88869506  0.07973099     0.04100
C95         C  0.96794220  0.87654740  0.10965126    -0.11900
C96         C  0.00281326  0.86148178  0.11439025     0.23400
C97         C  0.03667779  0.85872544  0.08897618    -0.12500
C98         C  0.03510330  0.87064645  0.05875843     0.04800
C99         C  0.00281238  0.84848932  0.14604822     0.27200
C100        C  0.02548876  0.85526675  0.17517061    -0.13200
C101        C  0.02448084  0.84314999  0.20544492     0.05300
C102        C  0.99549112  0.82486708  0.20876535    -0.09200
C103        C  0.96597722  0.82137554  0.17987952     0.06200
C104        C  0.97518366  0.83081727  0.14814953    -0.13500
Br105      Br  0.08509380  0.83854387  0.09545033    -0.05600
Br106      Br  0.91924286  0.90957222  0.07447021     0.00000
Br107      Br  0.06781165  0.85183260  0.23911467     0.00500
Br108      Br  0.94730854  0.82038757  0.10704707    -0.03900
Br109      Br  0.08331066  0.86770042  0.02520928     0.00600
Br110      Br  0.92124897  0.88018577  0.14420052    -0.03200
Br111      Br  0.05965004  0.88109189  0.17241159    -0.04100
Br112      Br  0.90446387  0.81050296  0.18158456    -0.00100
C113        C  0.98834479  0.19338955  0.28991451     0.01300
C114        C  0.97975815  0.20291415  0.32319893     0.04100
C115        C  0.97415977  0.19070178  0.35294166    -0.11900
C116        C  0.98020468  0.16896443  0.35184173     0.23400
C117        C  0.98591052  0.15885699  0.32052417    -0.12500
C118        C  0.98599774  0.17040321  0.28973823     0.04800
C119        C  0.98024015  0.15657566  0.38395289     0.27200
C120        C  0.02184956  0.15140127  0.39953829    -0.13200
C121        C  0.02220280  0.13985384  0.42993745     0.05300
C122        C  0.98096310  0.13343307  0.44496210    -0.09200
C123        C  0.93941787  0.13805340  0.42907135     0.06200
C124        C  0.93898157  0.14965018  0.39860546    -0.13500
Br125      Br  0.99039189  0.12833501  0.32076478    -0.05600
Br126      Br  0.98082090  0.23264856  0.33256500     0.00000
Br127      Br  0.07941120  0.13219819  0.45032719     0.00500
Br128      Br  0.88211083  0.15572776  0.37656054    -0.03900
Br129      Br  0.97153473  0.15225437  0.25150809     0.00600
Br130      Br  0.95984646  0.20362617  0.39671308    -0.03200
Br131      Br  0.07864016  0.15954998  0.37885366    -0.04100
Br132      Br  0.88340374  0.12804717  0.44889236    -0.00100
C133        C  0.99153892  0.13092045  0.06972018     0.01300
C134        C  0.01996746  0.14872495  0.07223850     0.04100
C135        C  0.02074930  0.16069850  0.10240551    -0.11900
C136        C  0.99545548  0.15436733  0.13112293     0.23400
C137        C  0.96884695  0.13612353  0.12948032    -0.12500
C138        C  0.96630181  0.12460137  0.09885165     0.04800
C139        C  0.99493094  0.16770383  0.16235630     0.27200
C140        C  0.03189414  0.16747890  0.18434672    -0.13200
C141        C  0.03241078  0.18069717  0.21340498     0.05300
C142        C  0.99446806  0.19463225  0.22190695    -0.09200
C143        C  0.95914689  0.19582723  0.19603314     0.06200
C144        C  0.95866524  0.18158338  0.16831680    -0.13500
Br145      Br  0.93403358  0.12759481  0.16900795    -0.05600
Br146      Br  0.06034168  0.15646405  0.03537487     0.00000
Br147      Br  0.08410736  0.17604468  0.24237417     0.00500
Br148      Br  0.90863306  0.18139746  0.13618469    -0.03900
Br149      Br  0.92560344  0.10112410  0.09716849     0.00600
Br150      Br  0.05511678  0.18642605  0.10413936    -0.03200
Br151      Br  0.08023169  0.14709516  0.17559147    -0.04100
Br152      Br  0.91587986  0.21865506  0.18899596    -0.00100
C153        C  0.77144358  0.29943373  0.25639893     0.01300
C154        C  0.79353064  0.29470793  0.28712166     0.04100
C155        C  0.82604741  0.27842629  0.28798596    -0.11900
C156        C  0.83642869  0.26695609  0.25813084     0.23400
C157        C  0.81310540  0.27121920  0.22777792    -0.12500
C158        C  0.78074546  0.28753668  0.22688780     0.04800
C159        C  0.87567168  0.25228773  0.25791300     0.27200
C160        C  0.91919924  0.26027839  0.25305839    -0.13200
C161        C  0.95777338  0.24734347  0.25750101     0.05300
C162        C  0.95349049  0.22453201  0.25892262    -0.09200
C163        C  0.90734031  0.21707139  0.26421651     0.06200
C164        C  0.86974495  0.23106874  0.26512188    -0.13500
Br165      Br  0.82726170  0.25567548  0.18687419    -0.05600
Br166      Br  0.78006733  0.31069176  0.32784735     0.00000
Br167      Br  0.00949628  0.26410946  0.27113945     0.00500
Br168      Br  0.80841126  0.22127200  0.27371428    -0.03900
Br169      Br  0.75224940  0.29489666  0.18446533     0.00600
Br170      Br  0.85846488  0.27251259  0.32944577    -0.03200
Br171      Br  0.92515921  0.28998553  0.24239277    -0.04100
Br172      Br  0.89035181  0.18786051  0.26487079    -0.00100
C173        C  0.91091720  0.45954344  0.26084689     0.01300
C174        C  0.86555121  0.46304988  0.27157806     0.04100
C175        C  0.83451646  0.44634584  0.27174732    -0.11900
C176        C  0.84901394  0.42602975  0.26177832     0.23100
C177        C  0.89485695  0.42234020  0.25249556    -0.12500
C178        C  0.92545722  0.43918015  0.25109129     0.04800
C179        C  0.81573948  0.40870030  0.25996852     0.27200
C180        C  0.80289353  0.39787866  0.28968372    -0.13200
C181        C  0.77124794  0.38152472  0.28787530     0.05300
C182        C  0.75404344  0.37518492  0.25620808    -0.09200
C183        C  0.76683703  0.38600166  0.22640929     0.06200
C184        C  0.79739933  0.40285781  0.22832968    -0.13500
Br185      Br  0.91576544  0.39407096  0.24265786    -0.05600
Br186      Br  0.84550814  0.49090682  0.28473215     0.00000
Br187      Br  0.75207267  0.36727976  0.32871263     0.00500
Br188      Br  0.81674132  0.41707278  0.18739107    -0.03900
Br189      Br  0.98719458  0.43431505  0.23561479     0.00600
Br190      Br  0.77208648  0.45117740  0.28565520    -0.03200
Br191      Br  0.83159633  0.40427917  0.33230838    -0.04100
Br192      Br  0.74512732  0.37681173  0.18273234    -0.00100
C193        C  0.77378822  0.71886173  0.24823111     0.01300
C194        C  0.80414417  0.72209505  0.27523426     0.04100
C195        C  0.83791411  0.73753756  0.27267080    -0.11900
C196        C  0.84141204  0.75000203  0.24314181     0.23400
C197        C  0.80987387  0.74738723  0.21670697    -0.12500
C198        C  0.77643368  0.73169012  0.21907843     0.04800
C199        C  0.87817834  0.76591175  0.24052674     0.27200
C200        C  0.87490817  0.78431276  0.25980718    -0.13200
C201        C  0.91370861  0.79665428  0.26535715     0.05300
C202        C  0.95347588  0.79477377  0.24304006    -0.09200
C203        C  0.95367169  0.77646453  0.22079932     0.06200
C204        C  0.91807517  0.76165060  0.22189311    -0.13500
Br205      Br  0.81282212  0.76524266  0.17722849    -0.05600
Br206      Br  0.79924613  0.70538748  0.31599837     0.00000
Br207      Br  0.91035607  0.80960776  0.31007658     0.00500
Br208      Br  0.92285490  0.73538460  0.19692813    -0.03900
Br209      Br  0.73633617  0.72680880  0.18140016     0.00600
Br210      Br  0.87994336  0.74144493  0.30955993    -0.03200
Br211      Br  0.81670868  0.79160618  0.28072968    -0.04100
Br212      Br  0.99864657  0.77124477  0.18535552    -0.00100
C213        C  0.90264716  0.55136160  0.26130986     0.01300
C214        C  0.86589599  0.55118295  0.23829236     0.04100
C215        C  0.83539513  0.56839689  0.23695056    -0.11900
C216        C  0.84119563  0.58586508  0.25850377     0.23400
C217        C  0.87629158  0.58569746  0.28257131    -0.12500
C218        C  0.90716242  0.56864197  0.28388403     0.04800
C219        C  0.81241881  0.60503764  0.25431137     0.27200
C220        C  0.82780462  0.62137061  0.23322214    -0.13200
C221        C  0.80100000  0.63958792  0.22894260     0.05300
C222        C  0.76011193  0.64245320  0.24799967    -0.09200
C223        C  0.74443999  0.62582766  0.26884346     0.06200
C224        C  0.77018127  0.60704041  0.27135125    -0.13500
Br225      Br  0.88246433  0.60925848  0.31325505    -0.05600
Br226      Br  0.85610843  0.52729261  0.20886685     0.00000
Br227      Br  0.81966888  0.65988262  0.19513794     0.00500
Br228      Br  0.74855623  0.58408642  0.29889167    -0.03900
Br229      Br  0.95751800  0.57017598  0.31501586     0.00600
Br230      Br  0.78558633  0.56830620  0.20535469    -0.03200
Br231      Br  0.88672559  0.61903955  0.21109509    -0.04100
Br232      Br  0.68940141  0.62879274  0.29577618    -0.00100
C233        C  0.62052633  0.68717640  0.24779911     0.01300
C234        C  0.59782400  0.69744079  0.27515484     0.04100
C235        C  0.54986523  0.69901889  0.27582160    -0.11900
C236        C  0.52406350  0.68943671  0.25008352     0.23400
C237        C  0.54679806  0.67940993  0.22253632    -0.12500
C238        C  0.59479425  0.67861696  0.22110766     0.04800
C239        C  0.47317834  0.68915395  0.25253291     0.27200
C240        C  0.45130584  0.67456351  0.27391873    -0.13200
C241        C  0.40332602  0.67358968  0.27532820     0.05300
C242        C  0.37643371  0.68663053  0.25416094    -0.09200
C243        C  0.39869049  0.70144130  0.23295328     0.06200
C244        C  0.44664756  0.70300281  0.23289931    -0.13500
Br245      Br  0.51204202  0.66653774  0.18685274    -0.05600
Br246      Br  0.63214343  0.70813141  0.31295267     0.00000
Br247      Br  0.37513131  0.65502711  0.30796416     0.00500
Br248      Br  0.47650556  0.72426992  0.20606183    -0.03900
Br249      Br  0.62538746  0.66652448  0.18184440     0.00600
Br250      Br  0.51929061  0.71444170  0.31188282    -0.03200
Br251      Br  0.48752008  0.65574264  0.30125714    -0.04100
Br252      Br  0.36455856  0.71879977  0.20192510    -0.00100
C253        C  0.03990432  0.79539234  0.24458192     0.01300
C254        C  0.07948795  0.79612063  0.22198322     0.04100
C255        C  0.11888502  0.78390420  0.22862672    -0.11900
C256        C  0.11720845  0.76710350  0.25136750     0.23400
C257        C  0.07807203  0.76424631  0.27126565    -0.12500
C258        C  0.04148339  0.77881452  0.26993387     0.04800
C259        C  0.15452039  0.75096456  0.25128005     0.27200
C260        C  0.15804304  0.73653341  0.22397924    -0.13200
C261        C  0.19138347  0.72052287  0.22419867     0.05300
C262        C  0.22128679  0.71858464  0.25188347    -0.09200
C263        C  0.21837306  0.73318487  0.27895907     0.06200
C264        C  0.18533859  0.74946140  0.27852178    -0.13500
Br265      Br  0.07539058  0.74004019  0.30107904    -0.05600
Br266      Br  0.08238550  0.80823801  0.17691646     0.00000
Br267      Br  0.19593630  0.70117423  0.18626623     0.00500
Br268      Br  0.18140660  0.76934732  0.31565534    -0.03900
Br269      Br  0.99741652  0.77565173  0.30635524     0.00600
Br270      Br  0.17601740  0.78912249  0.20499934    -0.03200
Br271      Br  0.11609394  0.73827558  0.18654968    -0.04100
Br272      Br  0.25724755  0.72988207  0.31783127    -0.00100
C273        C  0.23833936  0.64239089  0.25496535     0.01300
C274        C  0.22199893  0.63463265  0.28627469     0.04100
C275        C  0.19493914  0.61647839  0.28715869    -0.11900
C276        C  0.18492673  0.60570663  0.25672874     0.23400
C277        C  0.20300012  0.61299747  0.22554108    -0.12500
C278        C  0.22855627  0.63162561  0.22457595     0.04800
C279        C  0.15278271  0.58771111  0.25716827     0.27200
C280        C  0.16705302  0.56767588  0.26836971    -0.13200
C281        C  0.13613362  0.55087147  0.26915905     0.05300
C282        C  0.09129116  0.55381454  0.25761772    -0.09200
C283        C  0.07716667  0.57375412  0.24597886     0.06200
C284        C  0.10747961  0.59075658  0.24652421    -0.13500
Br285      Br  0.19183087  0.59765418  0.18406473    -0.05600
Br286      Br  0.23499510  0.64957665  0.32780523     0.00000
Br287      Br  0.15542851  0.52361864  0.28523982     0.00500
Br288      Br  0.08651964  0.61845547  0.23371694    -0.03900
Br289      Br  0.24711004  0.64334015  0.18147541     0.00600
Br290      Br  0.16979994  0.60693407  0.32988472    -0.03200
Br291      Br  0.22902434  0.56326653  0.28250293    -0.04100
Br292      Br  0.01585949  0.57796859  0.23004841    -0.00100
C293        C  0.37747785  0.32470527  0.23342512     0.01300
C294        C  0.40123896  0.32933207  0.26339800     0.04100
C295        C  0.44903215  0.32904755  0.26324691    -0.11900
C296        C  0.47329558  0.32293154  0.23363339     0.23400
C297        C  0.44948744  0.31655833  0.20446827    -0.12500
C298        C  0.40158158  0.31784806  0.20414230     0.04800
C299        C  0.52373569  0.32410704  0.23321343     0.27200
C300        C  0.54523221  0.34172119  0.21902518    -0.13200
C301        C  0.59264112  0.34413262  0.22175455     0.05300
C302        C  0.61870829  0.32959597  0.24098056    -0.09200
C303        C  0.59647627  0.31178760  0.25515289     0.06200
C304        C  0.54970261  0.30870850  0.24986844    -0.13500
Br305      Br  0.48268588  0.30613026  0.16517993    -0.05600
Br306      Br  0.36837049  0.33508732  0.30515276     0.00000
Br307      Br  0.62072083  0.36698774  0.19740838     0.00500
Br308      Br  0.52036734  0.28349774  0.26595198    -0.03900
Br309      Br  0.36906404  0.31067110  0.16347808     0.00600
Br310      Br  0.48141083  0.33756569  0.30342332    -0.03200
Br311      Br  0.50901673  0.36291386  0.19654249    -0.04100
Br312      Br  0.62742965  0.29209872  0.28465065    -0.00100
C313        C  0.04340243  0.22011858  0.25550021     0.01300
C314        C  0.07849237  0.21904484  0.28149158     0.04100
C315        C  0.11833412  0.23147138  0.27924681    -0.11900
C316        C  0.12409615  0.24596882  0.25308048     0.23400
C317        C  0.09363776  0.24618598  0.22611499    -0.12500
C318        C  0.05571998  0.23266686  0.22595366     0.04800
C319        C  0.16222078  0.26129886  0.25348951     0.27200
C320        C  0.15969475  0.27917367  0.27482087    -0.13200
C321        C  0.19093317  0.29561132  0.27059897     0.05300
C322        C  0.22456624  0.29446748  0.24459214    -0.09200
C323        C  0.22887845  0.27590874  0.22480397     0.06200
C324        C  0.19852706  0.25918122  0.22995201    -0.13500
Br325      Br  0.10191512  0.26719896  0.19072041    -0.05600
Br326      Br  0.08114408  0.19956818  0.31903283     0.00000
Br327      Br  0.18786678  0.31946298  0.30127105     0.00500
Br328      Br  0.20545984  0.23340739  0.20416582    -0.03900
Br329      Br  0.02052161  0.23509118  0.18512345     0.00600
Br330      Br  0.16801702  0.22842553  0.31114944    -0.03200
Br331      Br  0.11325605  0.28134242  0.30981777    -0.04100
Br332      Br  0.27330829  0.27382728  0.18843144    -0.00100
C333        C  0.10044247  0.46209925  0.25663706     0.01300
C334        C  0.13509089  0.46252646  0.23129772     0.04100
C335        C  0.16531415  0.44534687  0.22716696    -0.11900
C336        C  0.16097457  0.42748416  0.24790479     0.23400
C337        C  0.12810459  0.42738171  0.27430845    -0.12500
C338        C  0.09832734  0.44470442  0.27905056     0.04800
C339        C  0.19026834  0.40858634  0.24154410     0.27200
C340        C  0.17923509  0.39424321  0.21554814    -0.13200
C341        C  0.20477961  0.37552410  0.21121429     0.05300
C342        C  0.24133616  0.37087537  0.23310508    -0.09200
C343        C  0.25405906  0.38598487  0.25768776     0.06200
C344        C  0.22856258  0.40472559  0.26185821    -0.13500
Br345      Br  0.12306333  0.40304925  0.30334167    -0.05600
Br346      Br  0.14275223  0.48690814  0.20272756     0.00000
Br347      Br  0.19059883  0.35663232  0.17434715     0.00500
Br348      Br  0.24526773  0.42506037  0.29601539    -0.03900
Br349      Br  0.05351080  0.44365205  0.31541206     0.00600
Br350      Br  0.21277882  0.44606351  0.19285558    -0.03200
Br351      Br  0.12845113  0.40017725  0.18624983    -0.04100
Br352      Br  0.30480645  0.38096724  0.28718817    -0.00100
C353        C  0.32751090  0.32735862  0.73292701     0.80200
N354        N  0.30866950  0.34695619  0.73111059    -0.78100
C355        C  0.26266571  0.34957132  0.73251747     0.82600
N356        N  0.23592665  0.33239824  0.73593203    -0.78100
C357        C  0.25439297  0.31278850  0.73823635     0.82700
N358        N  0.30038296  0.31035874  0.73686434    -0.79800
C359        C  0.32561085  0.68458568  0.75399396     0.80200
N360        N  0.30623120  0.66514967  0.75355000    -0.78100
C361        C  0.26017883  0.66319990  0.75379459     0.82600
N362        N  0.23340396  0.68060852  0.75385800    -0.78100
C363        C  0.25195178  0.70003053  0.75377578     0.82700
N364        N  0.29805432  0.70198713  0.75421026    -0.79800
C365        C  0.67094614  0.68507878  0.74741286     0.80200
N366        N  0.69086109  0.66560321  0.74709936    -0.78100
C367        C  0.73699011  0.66348937  0.74808745     0.82600
N368        N  0.76277670  0.68100033  0.74930849    -0.78100
C369        C  0.74362243  0.70044218  0.74879301     0.82700
N370        N  0.69753492  0.70249802  0.74794178    -0.79800
O371        O  0.95645649  0.48455585  0.73163260    -0.74500
O372        O  0.04454024  0.52864364  0.73004266    -0.74500
O373        O  0.04811816  0.48578152  0.73001119    -0.74600
O374        O  0.95281345  0.52739083  0.73189426    -0.74600
O375        O  0.95304428  0.52697808  0.78853304    -0.74500
O376        O  0.05039094  0.48624773  0.78659085    -0.74500
O377        O  0.04520093  0.52892564  0.78681826    -0.74500
O378        O  0.95819788  0.48436088  0.78840375    -0.74600
Ni379      Ni  0.00044657  0.50658281  0.72888658     1.25400
Ni380      Ni  0.00173778  0.50662828  0.78961041     1.25400
C381        C  0.94331379  0.47707706  0.76026122     0.87700
C382        C  0.05887757  0.53620799  0.75816624     0.87600
C383        C  0.06483470  0.47899528  0.75792748     0.87700
C384        C  0.93751887  0.53426324  0.76055889     0.87800
C385        C  0.66860739  0.33272901  0.74584047     0.80200
N386        N  0.69658152  0.31565336  0.74796160    -0.78100
C387        C  0.74146649  0.31789176  0.75412567     0.82600
N388        N  0.75932944  0.33725592  0.75663802    -0.78100
C389        C  0.73241760  0.35451985  0.75362747     0.82700
N390        N  0.68687499  0.35228822  0.74878552    -0.79800
C391        C  0.99512698  0.20811192  0.75666851    -0.02500
C392        C  0.99585894  0.81056467  0.74256129    -0.02500
C393        C  0.98162621  0.12115762  0.97659282     0.80200
N394        N  0.98311215  0.09991549  0.97494186    -0.78100
C395        C  0.98632886  0.08839561  0.00382327     0.82600
N396        N  0.98873808  0.09830647  0.53454189    -0.78100
C397        C  0.98718904  0.11968375  0.53645867     0.82700
N398        N  0.98344580  0.13100567  0.00723146    -0.79800
C399        C  0.99724837  0.89739886  0.52132606     0.80200
N400        N  0.99492488  0.88714013  0.49099505    -0.78100
C401        C  0.99385045  0.89819329  0.96132505     0.82600
N402        N  0.99563248  0.91948469  0.96241345    -0.78100
C403        C  0.99731295  0.92992615  0.49238489     0.82700
N404        N  0.99786764  0.91878523  0.52192590    -0.79800
C405        C  0.98949886  0.06526969  0.00133967     0.01300
C406        C  0.95483969  0.05263057  0.51516921     0.04100
C407        C  0.95879859  0.03060829  0.51375614    -0.11900
C408        C  0.99577619  0.02108093  0.49630968     0.23400
C409        C  0.02927286  0.03366660  0.98093251    -0.12500
C410        C  0.02663186  0.05569817  0.98396391     0.04800
C411        C  0.99856798  0.99782799  0.49380297     0.27200
C412        C  0.02628521  0.98645904  0.01622721    -0.13200
C413        C  0.02635475  0.96432039  0.01566732     0.05300
C414        C  0.99795455  0.95335195  0.49289051    -0.09200
C415        C  0.97036365  0.96501079  0.47010098     0.06200
C416        C  0.97145294  0.98712556  0.47026306    -0.13500
Br417      Br  0.07859101  0.02061843  0.95551739    -0.05600
Br418      Br  0.89965163  0.06532071  0.53281454     0.00000
Br419      Br  0.06731365  0.94946892  0.04550617     0.00500
Br420      Br  0.93544851  0.00302056  0.43831040    -0.03900
Br421      Br  0.07427258  0.07269810  0.96456206     0.00600
Br422      Br  0.91365148  0.01336304  0.53585873    -0.03200
Br423      Br  0.06422979  0.00142224  0.04778713    -0.04100
Br424      Br  0.92820093  0.95129837  0.43999002    -0.00100
C425        C  0.98957700  0.88737835  0.92811591     0.01300
C426        C  0.02238256  0.89054696  0.90214238     0.04100
C427        C  0.01826012  0.88030964  0.87052785    -0.11900
C428        C  0.98184762  0.86651763  0.86473973     0.23400
C429        C  0.94777320  0.86419211  0.88999229    -0.12500
C430        C  0.95153878  0.87466009  0.92153091     0.04800
C431        C  0.98346876  0.85259717  0.83409895     0.27200
C432        C  0.95898454  0.85733149  0.80466278    -0.13200
C433        C  0.96173576  0.84382615  0.77582686     0.05300
C434        C  0.99423333  0.82651168  0.77423369    -0.09200
C435        C  0.02505335  0.82539873  0.80276802     0.06200
C436        C  0.01434947  0.83577093  0.83349245    -0.13500
Br437      Br  0.89617947  0.84655351  0.88157024    -0.05600
Br438      Br  0.07461975  0.90792929  0.91035592     0.00000
Br439      Br  0.91557653  0.84869016  0.74206487     0.00500
Br440      Br  0.04441837  0.82770507  0.87517554    -0.03900
Br441      Br  0.90366788  0.87219001  0.95530857     0.00600
Br442      Br  0.06327596  0.88462730  0.83509886    -0.03200
Br443      Br  0.91976739  0.88192623  0.80501402    -0.04100
Br444      Br  0.08869238  0.81664973  0.80117083    -0.00100
C445        C  0.99968070  0.88540286  0.55372250     0.01300
C446        C  0.96680290  0.88869584  0.57973967     0.04100
C447        C  0.96802675  0.87655162  0.60966448    -0.11900
C448        C  0.00288809  0.86148171  0.61440897     0.23400
C449        C  0.03674819  0.85871619  0.58899442    -0.12500
C450        C  0.03517670  0.87063040  0.55876948     0.04800
C451        C  0.00287812  0.84849183  0.64607033     0.27200
C452        C  0.02556041  0.85526692  0.67519155    -0.13200
C453        C  0.02453542  0.84315419  0.70547015     0.05300
C454        C  0.99553018  0.82487669  0.70879376    -0.09200
C455        C  0.96602521  0.82138371  0.67990315     0.06200
C456        C  0.97524432  0.83082166  0.64817231    -0.13500
Br457      Br  0.08515309  0.83853019  0.59547792    -0.05600
Br458      Br  0.91935962  0.90958451  0.57447772     0.00000
Br459      Br  0.06786686  0.85183258  0.73914236     0.00500
Br460      Br  0.94739430  0.82038379  0.60706583    -0.03900
Br461      Br  0.08337315  0.86766648  0.52521564     0.00600
Br462      Br  0.92133116  0.88019830  0.64420999    -0.03200
Br463      Br  0.05976772  0.88107846  0.67242095    -0.04100
Br464      Br  0.90451163  0.81051128  0.68159596    -0.00100
C465        C  0.98833023  0.19340949  0.78989928     0.01300
C466        C  0.97977544  0.20294369  0.82318010     0.04100
C467        C  0.97419113  0.19074018  0.85293362    -0.11900
C468        C  0.98020271  0.16900096  0.85184403     0.23400
C469        C  0.98586725  0.15888423  0.82053063    -0.12500
C470        C  0.98596836  0.17042342  0.78973713     0.04800
C471        C  0.98024351  0.15661883  0.88396165     0.27200
C472        C  0.02185651  0.15143602  0.89953537    -0.13200
C473        C  0.02221436  0.13988726  0.92993306     0.05300
C474        C  0.98097615  0.13347200  0.94496601    -0.09200
C475        C  0.93942674  0.13810224  0.92908827     0.06200
C476        C  0.93898566  0.14970165  0.89862543    -0.13500
Br477      Br  0.99027353  0.12835997  0.82079175    -0.05600
Br478      Br  0.98087892  0.23267983  0.83252310     0.00000
Br479      Br  0.07942600  0.13222070  0.95030768     0.00500
Br480      Br  0.88210948  0.15579143  0.87659656    -0.03900
Br481      Br  0.97153135  0.15226656  0.75151175     0.00600
Br482      Br  0.95994306  0.20367906  0.89670494    -0.03200
Br483      Br  0.07864557  0.15957172  0.87883491    -0.04100
Br484      Br  0.88341262  0.12810487  0.94892158    -0.00100
C485        C  0.99150709  0.13090728  0.56972186     0.01300
C486        C  0.01983553  0.14874885  0.57221484     0.04100
C487        C  0.02060722  0.16072078  0.60238397    -0.11900
C488        C  0.99538045  0.15436481  0.63111860     0.23400
C489        C  0.96886838  0.13609055  0.62949991    -0.12500
C490        C  0.96636182  0.12455534  0.59888086     0.04800
C491        C  0.99485883  0.16769612  0.66235741     0.27200
C492        C  0.03185517  0.16749019  0.68431722    -0.13200
C493        C  0.03238002  0.18070726  0.71337661     0.05300
C494        C  0.99443590  0.19463905  0.72188973    -0.09200
C495        C  0.95909224  0.19582243  0.69603355     0.06200
C496        C  0.95857157  0.18155905  0.66834597    -0.13500
Br497      Br  0.93414529  0.12753128  0.66905384    -0.05600
Br498      Br  0.06010578  0.15654311  0.53531774     0.00000
Br499      Br  0.08409239  0.17605704  0.74232867     0.00500
Br500      Br  0.90844808  0.18132331  0.63629785    -0.03900
Br501      Br  0.92586857  0.10099890  0.59726663     0.00600
Br502      Br  0.05489399  0.18647248  0.60410832    -0.03200
Br503      Br  0.08023371  0.14713416  0.67551713    -0.04100
Br504      Br  0.91586204  0.21866040  0.68896251    -0.00100
C505        C  0.77139498  0.29943460  0.75632955     0.01300
C506        C  0.79344182  0.29469529  0.78706289     0.04100
C507        C  0.82596065  0.27841458  0.78793119    -0.11900
C508        C  0.83638664  0.26695998  0.75806871     0.23400
C509        C  0.81310292  0.27123679  0.72770318    -0.12500
C510        C  0.78073496  0.28755099  0.72681109     0.04800
C511        C  0.87563567  0.25229461  0.75786209     0.27200
C512        C  0.91916136  0.26028775  0.75300990    -0.13200
C513        C  0.95774054  0.24735587  0.75745811     0.05300
C514        C  0.95346495  0.22454413  0.75889416    -0.09200
C515        C  0.90731578  0.21708197  0.76418933     0.06200
C516        C  0.86971546  0.23107687  0.76508265    -0.13500
Br517      Br  0.82733190  0.25572058  0.68678576    -0.05600
Br518      Br  0.77992261  0.31066112  0.82779718     0.00000
Br519      Br  0.00946563  0.26412921  0.77106726     0.00500
Br520      Br  0.80838290  0.22127812  0.77367514    -0.03900
Br521      Br  0.75227484  0.29492452  0.68438114     0.00600
Br522      Br  0.85832296  0.27248246  0.82940820    -0.03200
Br523      Br  0.92510852  0.28999448  0.74233556    -0.04100
Br524      Br  0.89033333  0.18787048  0.76486100    -0.00100
C525        C  0.91088187  0.45956603  0.76083686     0.01300
C526        C  0.86550768  0.46306773  0.77155118     0.04100
C527        C  0.83448043  0.44636044  0.77170575    -0.11900
C528        C  0.84899495  0.42604552  0.76174257     0.23100
C529        C  0.89484523  0.42236130  0.75247551    -0.12500
C530        C  0.92543747  0.43920452  0.75108401     0.04800
C531        C  0.81573245  0.40871130  0.75992298     0.27200
C532        C  0.80288184  0.39788665  0.78963424    -0.13200
C533        C  0.77125271  0.38152614  0.78781655     0.05300
C534        C  0.75405535  0.37518849  0.75614565    -0.09200
C535        C  0.76685815  0.38600673  0.72635025     0.06200
C536        C  0.79741503  0.40286479  0.72827846    -0.13500
Br537      Br  0.91577281  0.39409547  0.74263380    -0.05600
Br538      Br  0.84544437  0.49092290  0.78469879     0.00000
Br539      Br  0.75209742  0.36726708  0.82864612     0.00500
Br540      Br  0.81678396  0.41707630  0.68734353    -0.03900
Br541      Br  0.98718498  0.43434658  0.73562490     0.00600
Br542      Br  0.77203546  0.45118696  0.78557820    -0.03200
Br543      Br  0.83155556  0.40429368  0.83226767    -0.04100
Br544      Br  0.74516913  0.37681590  0.68266762    -0.00100
C545        C  0.77376626  0.71890122  0.74822618     0.01300
C546        C  0.80408356  0.72213994  0.77525135     0.04100
C547        C  0.83785480  0.73758280  0.77270602    -0.11900
C548        C  0.84138947  0.75004196  0.74317312     0.23400
C549        C  0.80988250  0.74742389  0.71671824    -0.12500
C550        C  0.77644208  0.73172667  0.71907248     0.04800
C551        C  0.87817214  0.76594344  0.74056672     0.27200
C552        C  0.87490891  0.78434822  0.75983813    -0.13200
C553        C  0.91371743  0.79668354  0.76538990     0.05300
C554        C  0.95348812  0.79479422  0.74307815    -0.09200
C555        C  0.95367981  0.77648029  0.72084839     0.06200
C556        C  0.91807343  0.76167179  0.72194445    -0.13500
Br557      Br  0.81287801  0.76527236  0.67723340    -0.05600
Br558      Br  0.79912998  0.70543830  0.81601808     0.00000
Br559      Br  0.91036888  0.80963751  0.81010909     0.00500
Br560      Br  0.92284548  0.73539917  0.69699683    -0.03900
Br561      Br  0.73638426  0.72684106  0.68137185     0.00600
Br562      Br  0.87983952  0.74149469  0.80962243    -0.03200
Br563      Br  0.81670896  0.79165619  0.78074677    -0.04100
Br564      Br  0.99865978  0.77124773  0.68541357    -0.00100
C565        C  0.90262487  0.55139597  0.76125015     0.01300
C566        C  0.86587675  0.55121702  0.73823026     0.04100
C567        C  0.83538763  0.56843492  0.73687528    -0.11900
C568        C  0.84119500  0.58590679  0.75841953     0.23400
C569        C  0.87629241  0.58574142  0.78248613    -0.12500
C570        C  0.90714935  0.56868117  0.78381359     0.04800
C571        C  0.81241169  0.60507736  0.75422805     0.27200
C572        C  0.82778391  0.62141007  0.73313255    -0.13200
C573        C  0.80097585  0.63962742  0.72886243     0.05300
C574        C  0.76009975  0.64249218  0.74793349    -0.09200
C575        C  0.74443944  0.62586644  0.76878076     0.06200
C576        C  0.77018106  0.60707894  0.77127839    -0.13500
Br577      Br  0.88248882  0.60931213  0.81314748    -0.05600
Br578      Br  0.85607210  0.52731892  0.70882515     0.00000
Br579      Br  0.81962009  0.65992400  0.69505395     0.00500
Br580      Br  0.74856289  0.58412222  0.79881569    -0.03900
Br581      Br  0.95749391  0.57021240  0.81495637     0.00600
Br582      Br  0.78558668  0.56834509  0.70527263    -0.03200
Br583      Br  0.88668899  0.61907778  0.71098236    -0.04100
Br584      Br  0.68941912  0.62883327  0.79573406    -0.00100
C585        C  0.62051432  0.68721467  0.74776751     0.01300
C586        C  0.59782128  0.69747622  0.77513053     0.04100
C587        C  0.54986177  0.69904639  0.77581387    -0.11900
C588        C  0.52405305  0.68946926  0.75007517     0.23400
C589        C  0.54677850  0.67945302  0.72251414    -0.12500
C590        C  0.59477405  0.67865922  0.72107729     0.04800
C591        C  0.47316971  0.68918272  0.75253395     0.27200
C592        C  0.45130788  0.67457857  0.77390073    -0.13200
C593        C  0.40332901  0.67360089  0.77531487     0.05300
C594        C  0.37642847  0.68664560  0.75416015    -0.09200
C595        C  0.39867523  0.70146785  0.73296758     0.06200
C596        C  0.44662996  0.70303959  0.73292223    -0.13500
Br597      Br  0.51200982  0.66659882  0.68682042    -0.05600
Br598      Br  0.63215640  0.70817993  0.81291107     0.00000
Br599      Br  0.37514660  0.65502958  0.80794308     0.00500
Br600      Br  0.47647268  0.72433326  0.70613107    -0.03900
Br601      Br  0.62535412  0.66657284  0.68180349     0.00600
Br602      Br  0.51929555  0.71445017  0.81190012    -0.03200
Br603      Br  0.48753486  0.65574450  0.80120585    -0.04100
Br604      Br  0.36453608  0.71882593  0.70194336    -0.00100
C605        C  0.03991697  0.79540499  0.74463105     0.01300
C606        C  0.07950631  0.79612810  0.72203812     0.04100
C607        C  0.11890081  0.78391426  0.72869628    -0.11900
C608        C  0.11721338  0.76711473  0.75143872     0.23400
C609        C  0.07807245  0.76426216  0.77133436    -0.12500
C610        C  0.04148543  0.77883097  0.76999008     0.04800
C611        C  0.15451449  0.75097072  0.75134734     0.27200
C612        C  0.15804763  0.73655214  0.72402901    -0.13200
C613        C  0.19139558  0.72054510  0.72423170     0.05300
C614        C  0.22127852  0.71859044  0.75192477    -0.09200
C615        C  0.21834536  0.73317320  0.77902352     0.06200
C616        C  0.18532043  0.74945373  0.77859520    -0.13500
Br617      Br  0.07538395  0.74006404  0.80116486    -0.05600
Br618      Br  0.08241314  0.80822727  0.67695811     0.00000
Br619      Br  0.19599423  0.70122589  0.68626289     0.00500
Br620      Br  0.18139279  0.76932834  0.81574488    -0.03900
Br621      Br  0.99740529  0.77567428  0.80640364     0.00600
Br622      Br  0.17604387  0.78913361  0.70508434    -0.03200
Br623      Br  0.11610446  0.73830595  0.68659678    -0.04100
Br624      Br  0.25717931  0.72983944  0.81791175    -0.00100
C625        C  0.23834449  0.64239668  0.75494142     0.01300
C626        C  0.22204578  0.63461804  0.78624922     0.04100
C627        C  0.19497485  0.61646706  0.78712140    -0.11900
C628        C  0.18492037  0.60571547  0.75668108     0.23400
C629        C  0.20295758  0.61302481  0.72549350    -0.12500
C630        C  0.22851502  0.63165275  0.72454131     0.04800
C631        C  0.15277349  0.58772097  0.75711448     0.27200
C632        C  0.16704869  0.56768087  0.76829099    -0.13200
C633        C  0.13612311  0.55087905  0.76908607     0.05300
C634        C  0.09127012  0.55382945  0.75757214    -0.09200
C635        C  0.07714416  0.57377201  0.74594877     0.06200
C636        C  0.10746136  0.59077261  0.74649486    -0.13500
Br637      Br  0.19173943  0.59770711  0.68400046    -0.05600
Br638      Br  0.23511347  0.64952940  0.82779650     0.00000
Br639      Br  0.15542213  0.52362024  0.78513769     0.00500
Br640      Br  0.08649196  0.61847723  0.73372802    -0.03900
Br641      Br  0.24701023  0.64339565  0.68144764     0.00600
Br642      Br  0.16987314  0.60690128  0.82984707    -0.03200
Br643      Br  0.22903356  0.56326168  0.78238541    -0.04100
Br644      Br  0.01583251  0.57799140  0.73003123    -0.00100
C645        C  0.37743938  0.32474696  0.73343631     0.01300
C646        C  0.40122664  0.32938609  0.76339249     0.04100
C647        C  0.44901996  0.32911106  0.76321427    -0.11900
C648        C  0.47325909  0.32298471  0.73359546     0.23400
C649        C  0.44942714  0.31660120  0.70444757    -0.12500
C650        C  0.40152068  0.31788947  0.70414347     0.04800
C651        C  0.52370038  0.32415010  0.73315857     0.27200
C652        C  0.54520702  0.34176075  0.71896825    -0.13200
C653        C  0.59261732  0.34416827  0.72170149     0.05300
C654        C  0.61868052  0.32962299  0.74091539    -0.09200
C655        C  0.59643866  0.31181451  0.75508016     0.06200
C656        C  0.54965868  0.30874648  0.74980812    -0.13500
Br657      Br  0.48259223  0.30615721  0.66515518    -0.05600
Br658      Br  0.36839768  0.33514060  0.80516404     0.00000
Br659      Br  0.62070139  0.36703447  0.69738477     0.00500
Br660      Br  0.52029934  0.28354447  0.76590458    -0.03900
Br661      Br  0.36897158  0.31071408  0.66349283     0.00600
Br662      Br  0.48143288  0.33765431  0.80336107    -0.03200
Br663      Br  0.50900179  0.36295226  0.69647366    -0.04100
Br664      Br  0.62738750  0.29210783  0.78455036    -0.00100
C665        C  0.04338262  0.22012838  0.75547106     0.01300
C666        C  0.07847762  0.21905153  0.78145857     0.04100
C667        C  0.11831515  0.23148019  0.77921555    -0.11900
C668        C  0.12406995  0.24598082  0.75305373     0.23400
C669        C  0.09361645  0.24619466  0.72608459    -0.12500
C670        C  0.05570242  0.23267295  0.72592177     0.04800
C671        C  0.16218802  0.26131384  0.75347125     0.27200
C672        C  0.15965965  0.27918203  0.77481676    -0.13200
C673        C  0.19090427  0.29561881  0.77061415     0.05300
C674        C  0.22454948  0.29447979  0.74461552    -0.09200
C675        C  0.22887492  0.27592283  0.72482325     0.06200
C676        C  0.19850904  0.25919799  0.72994661    -0.13500
Br677      Br  0.10189148  0.26720628  0.69068901    -0.05600
Br678      Br  0.08115453  0.19956116  0.81898114     0.00000
Br679      Br  0.18783761  0.31946010  0.80130751     0.00500
Br680      Br  0.20545100  0.23342760  0.70415221    -0.03900
Br681      Br  0.02051326  0.23508496  0.68508497     0.00600
Br682      Br  0.16800675  0.22843068  0.81111028    -0.03200
Br683      Br  0.11321631  0.28134045  0.80981215    -0.04100
Br684      Br  0.27335764  0.27383524  0.68848815    -0.00100
C685        C  0.10039322  0.46212285  0.75666176     0.01300
C686        C  0.13504950  0.46254584  0.73132869     0.04100
C687        C  0.16526979  0.44536486  0.72720920    -0.11900
C688        C  0.16091461  0.42750423  0.74794900     0.23400
C689        C  0.12804525  0.42740837  0.77435328    -0.12500
C690        C  0.09827285  0.44473345  0.77908596     0.04800
C691        C  0.19019991  0.40860402  0.74159436     0.27200
C692        C  0.17917004  0.39426181  0.71559610    -0.13200
C693        C  0.20471279  0.37554202  0.71126508     0.05300
C694        C  0.24126228  0.37089225  0.73316179    -0.09200
C695        C  0.25397639  0.38599953  0.75775047     0.06200
C696        C  0.22848750  0.40474233  0.76191356    -0.13500
Br697      Br  0.12300516  0.40308425  0.80340531    -0.05600
Br698      Br  0.14272683  0.48692393  0.70275327     0.00000
Br699      Br  0.19054033  0.35665169  0.67439396     0.00500
Br700      Br  0.24520061  0.42508200  0.79606110    -0.03900
Br701      Br  0.05345981  0.44369253  0.81545123     0.00600
Br702      Br  0.21275908  0.44607846  0.69291678    -0.03200
Br703      Br  0.12840092  0.40020066  0.68628562    -0.04100
Br704      Br  0.30469603  0.38097516  0.78727295    -0.00100
loop_ 
_geom_bond_atom_site_label_1 
_geom_bond_atom_site_label_2 
_geom_bond_distance 
_geom_bond_site_symmetry_2 
_ccdc_geom_bond_type 
C1            N2   1.361       .  A
C1            N6   1.358       .  A
C1          C293   1.475       .  S
N2            C3   1.361       .  A
C3            N4   1.358       .  A
C3          C342   1.489       .  S
N4            C5   1.359       .  A
C5            N6   1.359       .  A
C5          C322   1.485       .  S
C7            N8   1.366       .  A
C7           N12   1.365       .  A
C7          C242   1.501       .  S
N8            C9   1.360       .  A
C9           N10   1.352       .  A
C9          C273   1.477       .  S
N10          C11   1.355       .  A
C11          N12   1.362       .  A
C11         C262   1.481       .  S
C13          N14   1.365       .  A
C13          N18   1.363       .  A
C13         C233   1.487       .  S
N14          C15   1.362       .  A
C15          N16   1.355       .  A
C15         C222   1.492       .  S
N16          C17   1.354       .  A
C17          N18   1.360       .  A
C17         C193   1.478       .  S
O19         Ni27   1.919   1_655  S
O19          C29   1.280       .  A
O20         Ni27   1.920       .  S
O20          C30   1.281       .  A
O21         Ni27   1.918       .  S
O21          C31   1.282       .  A
O22         Ni27   1.919   1_655  S
O22          C32   1.282       .  A
O23         Ni28   1.921   1_655  S
O23          C32   1.282       .  A
O24         Ni28   1.923       .  S
O24          C31   1.282       .  A
O25         Ni28   1.921       .  S
O25          C30   1.281       .  A
O26         Ni28   1.919   1_655  S
O26          C29   1.281       .  A
Ni27        Ni28   2.387       .  S
C29         C173   1.473       .  S
C30         C282   1.478       .  S
C31         C333   1.491       .  S
C32         C213   1.489       .  S
C33          N34   1.359       .  A
C33          N38   1.365       .  A
C33         C302   1.497       .  S
N34          C35   1.353       .  A
C35          N36   1.347       .  A
C35         C153   1.463       .  S
N36          C37   1.353       .  A
C37          N38   1.363       .  A
C37         C182   1.470       .  S
C39         C113   1.621       .  S
C39         C142   1.611       .  S
C39         C162   1.603       .  S
C39         C313   1.618   1_655  S
C40          C82   1.602       .  S
C40         C102   1.612       .  S
C40         C202   1.607       .  S
C40         C253   1.610   1_655  S
C41          N42   1.353       .  A
C41          N46   1.357       .  A
C41         C122   1.472       .  S
N42          C43   1.357       .  A
C43         N396   1.363       .  A
C43          C53   1.476       .  S
N44          C45   1.362       .  A
N44         C395   1.363       .  A
C45         N398   1.362       .  A
C45         C133   1.494       .  S
N46         C397   1.362       .  A
C47          N48   1.359   1_554  A
C47          N52   1.361       .  A
C47          C93   1.489       .  S
N48         C401   1.364       .  A
C49          N50   1.356       .  A
C49         N400   1.364       .  A
C49          C73   1.480       .  S
N50         C403   1.353       .  A
C51          N52   1.363   1_556  A
C51         N402   1.353       .  A
C51          C62   1.490       .  S
C53          C58   1.412   1_655  A
C53         C406   1.409       .  A
C54          C55   1.405       .  A
C54         C405   1.409       .  A
C54         Br66   1.925       .  S
C55          C56   1.409   1_554  A
C55         Br70   1.931       .  S
C56          C59   1.483   1_545  S
C56         C409   1.409   1_655  A
C57          C58   1.407       .  A
C57         C408   1.409   1_455  A
C57         Br65   1.929       .  S
C58         Br69   1.930       .  S
C59          C64   1.406       .  A
C59         C412   1.406   1_656  A
C60          C61   1.408       .  A
C60         C411   1.406   1_455  A
C60         Br71   1.932   1_565  S
C61         C414   1.418   1_455  A
C61         Br67   1.933       .  S
C62          C63   1.421       .  A
C62         C413   1.418   1_656  A
C63          C64   1.407       .  A
C63         Br72   1.935       .  S
C64         Br68   1.933   1_565  S
C73          C74   1.412   1_655  A
C73          C78   1.412       .  A
C74          C75   1.407       .  A
C74         Br86   1.930       .  S
C75          C76   1.411   1_455  A
C75         Br90   1.932       .  S
C76          C79   1.492       .  S
C76          C77   1.411       .  A
C77          C78   1.411       .  A
C77         Br85   1.926       .  S
C78         Br89   1.931       .  S
C79          C80   1.402       .  A
C79          C84   1.396   1_655  A
C80          C81   1.420       .  A
C80         Br91   1.934       .  S
C81          C82   1.451       .  A
C81         Br87   1.932       .  S
C82          C83   1.451   1_655  A
C83          C84   1.404       .  A
C83         Br92   1.946       .  S
C84         Br88   1.939       .  S
C93          C94   1.412       .  A
C93          C98   1.413   1_655  A
C94          C95   1.410       .  A
C94        Br106   1.930       .  S
C95          C96   1.410   1_655  A
C95        Br110   1.931       .  S
C96          C99   1.496       .  S
C96          C97   1.411       .  A
C97          C98   1.413       .  A
C97        Br105   1.927       .  S
C98        Br109   1.931       .  S
C99         C100   1.400       .  A
C99         C104   1.395   1_455  A
C100        C101   1.420       .  A
C100       Br111   1.937       .  S
C101        C102   1.454   1_455  A
C101       Br107   1.930       .  S
C102        C103   1.454       .  A
C103        C104   1.411       .  A
C103       Br112   1.943       .  S
C104       Br108   1.937       .  S
C113        C114   1.458       .  A
C113        C118   1.464       .  A
C114        C115   1.415       .  A
C114       Br126   1.926       .  S
C115        C116   1.393       .  A
C115       Br130   1.943       .  S
C116        C119   1.491       .  S
C116        C117   1.394       .  A
C117        C118   1.418       .  A
C117       Br125   1.945       .  S
C118       Br129   1.944       .  S
C119        C120   1.411   1_655  A
C119        C124   1.412       .  A
C120        C121   1.405       .  A
C120       Br131   1.925       .  S
C121        C122   1.407   1_455  A
C121       Br127   1.930       .  S
C122        C123   1.407       .  A
C123        C124   1.409       .  A
C123       Br132   1.928       .  S
C124       Br128   1.928       .  S
C133        C134   1.418   1_655  A
C133        C138   1.419       .  A
C134        C135   1.407       .  A
C134       Br146   1.931       .  S
C135        C136   1.407   1_455  A
C135       Br150   1.933       .  S
C136        C139   1.489       .  S
C136        C137   1.408       .  A
C137        C138   1.410       .  A
C137       Br145   1.933       .  S
C138       Br149   1.924       .  S
C139        C140   1.396   1_655  A
C139        C144   1.394       .  A
C140        C141   1.416       .  A
C140       Br151   1.940       .  S
C141        C142   1.452   1_455  A
C141       Br147   1.930       .  S
C142        C143   1.463       .  A
C143        C144   1.414       .  A
C143       Br152   1.943       .  S
C144       Br148   1.949       .  S
C153        C154   1.409       .  A
C153        C158   1.405       .  A
C154        C155   1.403       .  A
C154       Br166   1.928       .  S
C155        C156   1.408       .  A
C155       Br170   1.933       .  S
C156        C159   1.476       .  S
C156        C157   1.409       .  A
C157        C158   1.401       .  A
C157       Br165   1.923       .  S
C158       Br169   1.932       .  S
C159        C160   1.393       .  A
C159        C164   1.393       .  A
C160        C161   1.407       .  A
C160       Br171   1.946       .  S
C161        C162   1.459       .  A
C161       Br167   1.945   1_655  S
C162        C163   1.454       .  A
C163        C164   1.412       .  A
C163       Br172   1.929       .  S
C164       Br168   1.940       .  S
C173        C174   1.409       .  A
C173        C178   1.410       .  A
C174        C175   1.407       .  A
C174       Br186   1.928       .  S
C175        C176   1.409       .  A
C175       Br190   1.930       .  S
C176        C179   1.483       .  S
C176        C177   1.409       .  A
C177        C178   1.406       .  A
C177       Br185   1.930       .  S
C178       Br189   1.929       .  S
C179        C180   1.408       .  A
C179        C184   1.411       .  A
C180        C181   1.404       .  A
C180       Br191   1.928       .  S
C181        C182   1.408       .  A
C181       Br187   1.928       .  S
C182        C183   1.410       .  A
C183        C184   1.408       .  A
C183       Br192   1.929       .  S
C184       Br188   1.931       .  S
C193        C194   1.410       .  A
C193        C198   1.411       .  A
C194        C195   1.406       .  A
C194       Br206   1.931       .  S
C195        C196   1.412       .  A
C195       Br210   1.932       .  S
C196        C199   1.491       .  S
C196        C197   1.411       .  A
C197        C198   1.411       .  A
C197       Br205   1.928       .  S
C198       Br209   1.929       .  S
C199        C200   1.394       .  A
C199        C204   1.399       .  A
C200        C201   1.409       .  A
C200       Br211   1.940       .  S
C201        C202   1.457       .  A
C201       Br207   1.939       .  S
C202        C203   1.453       .  A
C203        C204   1.415       .  A
C203       Br212   1.935       .  S
C204       Br208   1.937       .  S
C213        C214   1.417       .  A
C213        C218   1.418       .  A
C214        C215   1.410       .  A
C214       Br226   1.932       .  S
C215        C216   1.407       .  A
C215       Br230   1.930       .  S
C216        C219   1.488       .  S
C216        C217   1.407       .  A
C217        C218   1.409       .  A
C217       Br225   1.931       .  S
C218       Br229   1.934       .  S
C219        C220   1.407       .  A
C219        C224   1.408       .  A
C220        C221   1.406       .  A
C220       Br231   1.933       .  S
C221        C222   1.418       .  A
C221       Br227   1.935       .  S
C222        C223   1.418       .  A
C223        C224   1.412       .  A
C223       Br232   1.930       .  S
C224       Br228   1.930       .  S
C233        C234   1.413       .  A
C233        C238   1.411       .  A
C234        C235   1.412       .  A
C234       Br246   1.930       .  S
C235        C236   1.411       .  A
C235       Br250   1.929       .  S
C236        C239   1.498       .  S
C236        C237   1.412       .  A
C237        C238   1.411       .  A
C237       Br245   1.929       .  S
C238       Br249   1.930       .  S
C239        C240   1.410       .  A
C239        C244   1.409       .  A
C240        C241   1.413       .  A
C240       Br251   1.932       .  S
C241        C242   1.419       .  A
C241       Br247   1.932       .  S
C242        C243   1.420       .  A
C243        C244   1.414       .  A
C243       Br252   1.931       .  S
C244       Br248   1.931       .  S
C253        C254   1.457       .  A
C253        C258   1.455       .  A
C254        C255   1.415       .  A
C254       Br266   1.936       .  S
C255        C256   1.397       .  A
C255       Br270   1.942       .  S
C256        C259   1.494       .  S
C256        C257   1.397       .  A
C257        C258   1.414       .  A
C257       Br265   1.940       .  S
C258       Br269   1.932   1_455  S
C259        C260   1.411       .  A
C259        C264   1.413       .  A
C260        C261   1.406       .  A
C260       Br271   1.933       .  S
C261        C262   1.411       .  A
C261       Br267   1.932       .  S
C262        C263   1.411       .  A
C263        C264   1.412       .  A
C263       Br272   1.929       .  S
C264       Br268   1.929       .  S
C273        C274   1.409       .  A
C273        C278   1.408       .  A
C274        C275   1.409       .  A
C274       Br286   1.929       .  S
C275        C276   1.411       .  A
C275       Br290   1.929       .  S
C276        C279   1.492       .  S
C276        C277   1.412       .  A
C277        C278   1.410       .  A
C277       Br285   1.929       .  S
C278       Br289   1.928       .  S
C279        C280   1.411       .  A
C279        C284   1.412       .  A
C280        C281   1.410       .  A
C280       Br291   1.928       .  S
C281        C282   1.410       .  A
C281       Br287   1.930       .  S
C282        C283   1.410       .  A
C283        C284   1.408       .  A
C283       Br292   1.931       .  S
C284       Br288   1.931       .  S
C293        C294   1.408       .  A
C293        C298   1.410       .  A
C294        C295   1.404       .  A
C294       Br306   1.926       .  S
C295        C296   1.409       .  A
C295       Br310   1.931       .  S
C296        C299   1.485       .  S
C296        C297   1.410       .  A
C297        C298   1.410       .  A
C297       Br305   1.929       .  S
C298       Br309   1.927       .  S
C299        C300   1.406       .  A
C299        C304   1.404       .  A
C300        C301   1.409       .  A
C300       Br311   1.932       .  S
C301        C302   1.420       .  A
C301       Br307   1.931       .  S
C302        C303   1.426       .  A
C303        C304   1.408       .  A
C303       Br312   1.937       .  S
C304       Br308   1.933       .  S
C313        C314   1.461       .  A
C313        C318   1.456       .  A
C314        C315   1.421       .  A
C314       Br326   1.932       .  S
C315        C316   1.394       .  A
C315       Br330   1.944       .  S
C316        C319   1.493       .  S
C316        C317   1.395       .  A
C317        C318   1.414       .  A
C317       Br325   1.948       .  S
C318       Br329   1.925       .  S
C319        C320   1.411       .  A
C319        C324   1.409       .  A
C320        C321   1.407       .  A
C320       Br331   1.930       .  S
C321        C322   1.415       .  A
C321       Br327   1.935       .  S
C322        C323   1.415       .  A
C323        C324   1.409       .  A
C323       Br332   1.928       .  S
C324       Br328   1.932       .  S
C333        C334   1.417       .  A
C333        C338   1.419       .  A
C334        C335   1.409       .  A
C334       Br346   1.932       .  S
C335        C336   1.407       .  A
C335       Br350   1.930       .  S
C336        C339   1.490       .  S
C336        C337   1.410       .  A
C337        C338   1.411       .  A
C337       Br345   1.933       .  S
C338       Br349   1.934       .  S
C339        C340   1.410       .  A
C339        C344   1.407       .  A
C340        C341   1.410       .  A
C340       Br351   1.931       .  S
C341        C342   1.414       .  A
C341       Br347   1.930       .  S
C342        C343   1.416       .  A
C343        C344   1.410       .  A
C343       Br352   1.924       .  S
C344       Br348   1.931       .  S
C353        N354   1.361       .  A
C353        N358   1.358       .  A
C353        C645   1.475       .  S
N354        C355   1.361       .  A
C355        N356   1.358       .  A
C355        C694   1.489       .  S
N356        C357   1.359       .  A
C357        N358   1.359       .  A
C357        C674   1.485       .  S
C359        N360   1.367       .  A
C359        N364   1.365       .  A
C359        C594   1.501       .  S
N360        C361   1.360       .  A
C361        N362   1.352       .  A
C361        C625   1.477       .  S
N362        C363   1.355       .  A
C363        N364   1.362       .  A
C363        C614   1.481       .  S
C365        N366   1.365       .  A
C365        N370   1.362       .  A
C365        C585   1.487       .  S
N366        C367   1.362       .  A
C367        N368   1.355       .  A
C367        C574   1.492       .  S
N368        C369   1.354       .  A
C369        N370   1.360       .  A
C369        C545   1.478       .  S
O371       Ni379   1.919   1_655  S
O371        C381   1.280       .  A
O372       Ni379   1.920       .  S
O372        C382   1.281       .  A
O373       Ni379   1.918       .  S
O373        C383   1.282       .  A
O374       Ni379   1.919   1_655  S
O374        C384   1.282       .  A
O375       Ni380   1.921   1_655  S
O375        C384   1.282       .  A
O376       Ni380   1.923       .  S
O376        C383   1.282       .  A
O377       Ni380   1.921       .  S
O377        C382   1.281       .  A
O378       Ni380   1.919   1_655  S
O378        C381   1.281       .  A
Ni379      Ni380   2.387       .  S
C381        C525   1.473       .  S
C382        C634   1.478       .  S
C383        C685   1.491       .  S
C384        C565   1.489       .  S
C385        N386   1.359       .  A
C385        N390   1.365       .  A
C385        C654   1.497       .  S
N386        C387   1.353       .  A
C387        N388   1.347       .  A
C387        C505   1.463       .  S
N388        C389   1.353       .  A
C389        N390   1.363       .  A
C389        C534   1.470       .  S
C391        C465   1.621       .  S
C391        C494   1.611       .  S
C391        C514   1.603       .  S
C391        C665   1.618   1_655  S
C392        C434   1.602       .  S
C392        C454   1.612       .  S
C392        C554   1.607       .  S
C392        C605   1.610   1_655  S
C393        N394   1.353       .  A
C393        N398   1.357   1_556  A
C393        C474   1.472       .  S
N394        C395   1.357   1_556  A
C395        C405   1.476       .  S
N396        C397   1.362       .  A
C397        C485   1.494       .  S
C399        N400   1.359       .  A
C399        N404   1.361       .  A
C399        C445   1.489       .  S
C401        N402   1.356       .  A
C401        C425   1.480       .  S
C403        N404   1.363       .  A
C403        C414   1.490       .  S
C405        C410   1.412   1_654  A
C406        C407   1.405       .  A
C406       Br418   1.925       .  S
C407        C408   1.409       .  A
C407       Br422   1.931       .  S
C408        C411   1.483   1_545  S
C409        C410   1.407       .  A
C409       Br417   1.929       .  S
C410       Br421   1.930       .  S
C411        C416   1.406       .  A
C412        C413   1.408       .  A
C412       Br423   1.932   1_565  S
C413       Br419   1.933       .  S
C414        C415   1.421       .  A
C415        C416   1.407       .  A
C415       Br424   1.935       .  S
C416       Br420   1.933   1_565  S
C425        C426   1.412   1_655  A
C425        C430   1.412       .  A
C426        C427   1.407       .  A
C426       Br438   1.930       .  S
C427        C428   1.410   1_455  A
C427       Br442   1.932       .  S
C428        C431   1.492       .  S
C428        C429   1.411       .  A
C429        C430   1.411       .  A
C429       Br437   1.926       .  S
C430       Br441   1.931       .  S
C431        C432   1.402       .  A
C431        C436   1.396   1_655  A
C432        C433   1.420       .  A
C432       Br443   1.934       .  S
C433        C434   1.451       .  A
C433       Br439   1.932       .  S
C434        C435   1.451   1_655  A
C435        C436   1.404       .  A
C435       Br444   1.946       .  S
C436       Br440   1.939       .  S
C445        C446   1.412       .  A
C445        C450   1.413   1_655  A
C446        C447   1.410       .  A
C446       Br458   1.930       .  S
C447        C448   1.410   1_655  A
C447       Br462   1.931       .  S
C448        C451   1.496       .  S
C448        C449   1.411       .  A
C449        C450   1.413       .  A
C449       Br457   1.927       .  S
C450       Br461   1.931       .  S
C451        C452   1.400       .  A
C451        C456   1.395   1_455  A
C452        C453   1.420       .  A
C452       Br463   1.937       .  S
C453        C454   1.454   1_455  A
C453       Br459   1.930       .  S
C454        C455   1.454       .  A
C455        C456   1.411       .  A
C455       Br464   1.943       .  S
C456       Br460   1.937       .  S
C465        C466   1.458       .  A
C465        C470   1.464       .  A
C466        C467   1.415       .  A
C466       Br478   1.926       .  S
C467        C468   1.393       .  A
C467       Br482   1.943       .  S
C468        C471   1.491       .  S
C468        C469   1.394       .  A
C469        C470   1.418       .  A
C469       Br477   1.945       .  S
C470       Br481   1.944       .  S
C471        C472   1.411   1_655  A
C471        C476   1.412       .  A
C472        C473   1.405       .  A
C472       Br483   1.925       .  S
C473        C474   1.407   1_455  A
C473       Br479   1.930       .  S
C474        C475   1.407       .  A
C475        C476   1.409       .  A
C475       Br484   1.928       .  S
C476       Br480   1.928       .  S
C485        C486   1.418   1_655  A
C485        C490   1.419       .  A
C486        C487   1.407       .  A
C486       Br498   1.931       .  S
C487        C488   1.407   1_455  A
C487       Br502   1.933       .  S
C488        C491   1.489       .  S
C488        C489   1.408       .  A
C489        C490   1.410       .  A
C489       Br497   1.933       .  S
C490       Br501   1.924       .  S
C491        C492   1.396   1_655  A
C491        C496   1.394       .  A
C492        C493   1.416       .  A
C492       Br503   1.940       .  S
C493        C494   1.452   1_455  A
C493       Br499   1.930       .  S
C494        C495   1.463       .  A
C495        C496   1.414       .  A
C495       Br504   1.943       .  S
C496       Br500   1.949       .  S
C505        C506   1.409       .  A
C505        C510   1.405       .  A
C506        C507   1.403       .  A
C506       Br518   1.928       .  S
C507        C508   1.408       .  A
C507       Br522   1.933       .  S
C508        C511   1.476       .  S
C508        C509   1.409       .  A
C509        C510   1.401       .  A
C509       Br517   1.923       .  S
C510       Br521   1.932       .  S
C511        C512   1.393       .  A
C511        C516   1.393       .  A
C512        C513   1.407       .  A
C512       Br523   1.946       .  S
C513        C514   1.459       .  A
C513       Br519   1.945   1_655  S
C514        C515   1.454       .  A
C515        C516   1.412       .  A
C515       Br524   1.929       .  S
C516       Br520   1.940       .  S
C525        C526   1.409       .  A
C525        C530   1.410       .  A
C526        C527   1.407       .  A
C526       Br538   1.928       .  S
C527        C528   1.409       .  A
C527       Br542   1.930       .  S
C528        C531   1.483       .  S
C528        C529   1.409       .  A
C529        C530   1.406       .  A
C529       Br537   1.930       .  S
C530       Br541   1.929       .  S
C531        C532   1.408       .  A
C531        C536   1.411       .  A
C532        C533   1.404       .  A
C532       Br543   1.928       .  S
C533        C534   1.408       .  A
C533       Br539   1.928       .  S
C534        C535   1.410       .  A
C535        C536   1.408       .  A
C535       Br544   1.929       .  S
C536       Br540   1.931       .  S
C545        C546   1.410       .  A
C545        C550   1.411       .  A
C546        C547   1.406       .  A
C546       Br558   1.931       .  S
C547        C548   1.412       .  A
C547       Br562   1.932       .  S
C548        C551   1.491       .  S
C548        C549   1.411       .  A
C549        C550   1.411       .  A
C549       Br557   1.928       .  S
C550       Br561   1.929       .  S
C551        C552   1.394       .  A
C551        C556   1.399       .  A
C552        C553   1.409       .  A
C552       Br563   1.940       .  S
C553        C554   1.457       .  A
C553       Br559   1.939       .  S
C554        C555   1.453       .  A
C555        C556   1.415       .  A
C555       Br564   1.934       .  S
C556       Br560   1.937       .  S
C565        C566   1.417       .  A
C565        C570   1.418       .  A
C566        C567   1.410       .  A
C566       Br578   1.932       .  S
C567        C568   1.407       .  A
C567       Br582   1.930       .  S
C568        C571   1.488       .  S
C568        C569   1.407       .  A
C569        C570   1.409       .  A
C569       Br577   1.931       .  S
C570       Br581   1.934       .  S
C571        C572   1.407       .  A
C571        C576   1.408       .  A
C572        C573   1.406       .  A
C572       Br583   1.933       .  S
C573        C574   1.418       .  A
C573       Br579   1.935       .  S
C574        C575   1.418       .  A
C575        C576   1.412       .  A
C575       Br584   1.930       .  S
C576       Br580   1.930       .  S
C585        C586   1.413       .  A
C585        C590   1.411       .  A
C586        C587   1.412       .  A
C586       Br598   1.930       .  S
C587        C588   1.411       .  A
C587       Br602   1.929       .  S
C588        C591   1.498       .  S
C588        C589   1.412       .  A
C589        C590   1.411       .  A
C589       Br597   1.929       .  S
C590       Br601   1.930       .  S
C591        C592   1.410       .  A
C591        C596   1.409       .  A
C592        C593   1.413       .  A
C592       Br603   1.932       .  S
C593        C594   1.419       .  A
C593       Br599   1.932       .  S
C594        C595   1.420       .  A
C595        C596   1.414       .  A
C595       Br604   1.931       .  S
C596       Br600   1.931       .  S
C605        C606   1.457       .  A
C605        C610   1.455       .  A
C606        C607   1.415       .  A
C606       Br618   1.936       .  S
C607        C608   1.397       .  A
C607       Br622   1.942       .  S
C608        C611   1.494       .  S
C608        C609   1.397       .  A
C609        C610   1.414       .  A
C609       Br617   1.940       .  S
C610       Br621   1.932   1_455  S
C611        C612   1.411       .  A
C611        C616   1.413       .  A
C612        C613   1.406       .  A
C612       Br623   1.933       .  S
C613        C614   1.411       .  A
C613       Br619   1.932       .  S
C614        C615   1.411       .  A
C615        C616   1.412       .  A
C615       Br624   1.929       .  S
C616       Br620   1.929       .  S
C625        C626   1.409       .  A
C625        C630   1.408       .  A
C626        C627   1.409       .  A
C626       Br638   1.929       .  S
C627        C628   1.411       .  A
C627       Br642   1.929       .  S
C628        C631   1.492       .  S
C628        C629   1.412       .  A
C629        C630   1.410       .  A
C629       Br637   1.929       .  S
C630       Br641   1.928       .  S
C631        C632   1.411       .  A
C631        C636   1.412       .  A
C632        C633   1.410       .  A
C632       Br643   1.928       .  S
C633        C634   1.410       .  A
C633       Br639   1.930       .  S
C634        C635   1.410       .  A
C635        C636   1.408       .  A
C635       Br644   1.931       .  S
C636       Br640   1.931       .  S
C645        C646   1.408       .  A
C645        C650   1.410       .  A
C646        C647   1.404       .  A
C646       Br658   1.926       .  S
C647        C648   1.409       .  A
C647       Br662   1.931       .  S
C648        C651   1.485       .  S
C648        C649   1.410       .  A
C649        C650   1.410       .  A
C649       Br657   1.929       .  S
C650       Br661   1.927       .  S
C651        C652   1.406       .  A
C651        C656   1.404       .  A
C652        C653   1.409       .  A
C652       Br663   1.932       .  S
C653        C654   1.420       .  A
C653       Br659   1.931       .  S
C654        C655   1.426       .  A
C655        C656   1.408       .  A
C655       Br664   1.937       .  S
C656       Br660   1.933       .  S
C665        C666   1.461       .  A
C665        C670   1.456       .  A
C666        C667   1.421       .  A
C666       Br678   1.932       .  S
C667        C668   1.394       .  A
C667       Br682   1.944       .  S
C668        C671   1.493       .  S
C668        C669   1.395       .  A
C669        C670   1.415       .  A
C669       Br677   1.948       .  S
C670       Br681   1.925       .  S
C671        C672   1.411       .  A
C671        C676   1.409       .  A
C672        C673   1.407       .  A
C672       Br683   1.930       .  S
C673        C674   1.415       .  A
C673       Br679   1.935       .  S
C674        C675   1.415       .  A
C675        C676   1.409       .  A
C675       Br684   1.928       .  S
C676       Br680   1.932       .  S
C685        C686   1.417       .  A
C685        C690   1.419       .  A
C686        C687   1.409       .  A
C686       Br698   1.932       .  S
C687        C688   1.407       .  A
C687       Br702   1.930       .  S
C688        C691   1.490       .  S
C688        C689   1.410       .  A
C689        C690   1.411       .  A
C689       Br697   1.933       .  S
C690       Br701   1.934       .  S
C691        C692   1.410       .  A
C691        C696   1.407       .  A
C692        C693   1.410       .  A
C692       Br703   1.931       .  S
C693        C694   1.414       .  A
C693       Br699   1.930       .  S
C694        C695   1.416       .  A
C695        C696   1.410       .  A
C695       Br704   1.924       .  S
C696       Br700   1.931       .  S
