geometry optimzed in LAMMPS
_audit_creation_date              2020-11-30 
_audit_creation_method            'lammps2cif' 
_symmetry_space_group_name_H-M    'P1' 
_symmetry_Int_Tables_number       1 
_symmetry_cell_setting            triclinic 
loop_ 
_symmetry_equiv_pos_as_xyz 
  x,y,z 
_cell_length_a                    49.85395779 
_cell_length_b                    50.76503675234274 
_cell_length_c                    30.248359990579115 
_cell_angle_alpha                 89.68483661658169 
_cell_angle_beta                  89.83477853746531 
_cell_angle_gamma                 120.13406236403809 
loop_ 
_atom_site_label 
_atom_site_type_symbol 
_atom_site_fract_x 
_atom_site_fract_y 
_atom_site_fract_z 
_atom_site_charge 
C1          C  0.51299660  0.20352043  0.29944258     0.85900
C2          C  0.02382280  0.19668991  0.30699832    -0.54400
C3          C  0.02625785  0.18434754  0.26821905     0.08800
C4          C  0.99628489  0.17017273  0.24049041     0.19700
C5          C  0.50591124  0.21831728  0.26039795    -0.55100
C6          C  0.98754338  0.19539089  0.23576432     0.08900
C7          C  0.48540619  0.17057409  0.30130049    -0.54600
C8          C  0.48011046  0.15507974  0.26222789     0.09500
H9          H  0.04238114  0.20661583  0.33107934     0.14000
H10         H  0.99847535  0.16050238  0.20882911    -0.00300
H11         H  0.50407464  0.23868880  0.26358811     0.14300
H12         H  0.47067787  0.16112666  0.33030962     0.14100
C13         C  0.17898909  0.17921129  0.31622326     0.85900
C14         C  0.16806790  0.14522394  0.31505648    -0.54400
C15         C  0.15025611  0.13035086  0.27935451     0.08800
C16         C  0.14416318  0.15113817  0.24836875     0.19700
C17         C  0.19529402  0.19172009  0.27106379    -0.55100
C18         C  0.17674078  0.17697127  0.23556849     0.08900
C19         C  0.14941689  0.18121829  0.31349151    -0.54600
C20         C  0.13123515  0.16702802  0.27783221     0.09500
H21         H  0.17580246  0.13435513  0.33880861     0.14000
H22         H  0.12937863  0.13924203  0.21947034    -0.00300
H23         H  0.21851405  0.21119080  0.26752998     0.14300
H24         H  0.14405371  0.19410451  0.33689633     0.14100
C25         C  0.18004929  0.99223559  0.28945241     0.85900
C26         C  0.15488479  0.47668993  0.27430850    -0.54400
C27         C  0.13828328  0.47905775  0.24034154     0.08800
C28         C  0.15973464  0.00533635  0.21793249     0.19700
C29         C  0.20396566  0.00477765  0.25196668    -0.55100
C30         C  0.19342689  0.01136112  0.21432804     0.08900
C31         C  0.17036812  0.01627361  0.29621818    -0.54600
C32         C  0.15987823  0.02350481  0.25887047     0.09500
H33         H  0.14416840  0.45946120  0.30017939     0.14000
H34         H  0.15091008  0.01062049  0.18746527    -0.00300
H35         H  0.22688193  0.00727521  0.25447996     0.14300
H36         H  0.17234675  0.02709022  0.32789294     0.14100
C37         C  0.99237733  0.32667787  0.29603564     0.85900
C38         C  0.47695318  0.32574047  0.28269378    -0.54400
C39         C  0.47129419  0.33864920  0.24687425     0.08800
C40         C  0.49773550  0.35111047  0.21183275     0.19700
C41         C  0.99806347  0.31153759  0.25595769    -0.55100
C42         C  0.50328849  0.32413646  0.20224043     0.08900
C43         C  0.01779568  0.36013807  0.29320949    -0.54600
C44         C  0.01920916  0.37403871  0.25377233     0.09500
H45         H  0.46078273  0.31579411  0.31016980     0.14000
H46         H  0.49328346  0.36146562  0.18243754    -0.00300
H47         H  0.00048775  0.29159589  0.25881491     0.14300
H48         H  0.03426602  0.37145600  0.31969811     0.14100
C49         C  0.30373913  0.31348872  0.29915906     0.85900
C50         C  0.31021214  0.34626507  0.29833746    -0.54400
C51         C  0.32768885  0.36331041  0.26316836     0.08800
C52         C  0.33711169  0.34537711  0.23165795     0.19700
C53         C  0.28876174  0.30035529  0.25437294    -0.55100
C54         C  0.30628585  0.31704385  0.21891744     0.08900
C55         C  0.33569906  0.31613952  0.29669367    -0.54600
C56         C  0.35335059  0.33293817  0.26142530     0.09500
H57         H  0.30035696  0.35457321  0.32284170     0.14000
H58         H  0.35153649  0.35865337  0.20292702    -0.00300
H59         H  0.26624280  0.27981864  0.25102324     0.14300
H60         H  0.34370372  0.30570837  0.32078626     0.14100
C61         C  0.31911224  0.00405123  0.19481371     0.85900
C62         C  0.31841951  0.48017104  0.19176367    -0.54400
C63         C  0.33135811  0.47727268  0.23002728     0.08800
C64         C  0.35573385  0.00946119  0.25975061     0.19700
C65         C  0.30421206  0.00045947  0.24084967    -0.55100
C66         C  0.32361412  0.00347695  0.27501242     0.08900
C67         C  0.34909575  0.03505212  0.19616034    -0.54600
C68         C  0.36858890  0.03825873  0.23018104     0.09500
H69         H  0.31176460  0.46379895  0.16532217     0.14000
H70         H  0.37112546  0.01128432  0.28736853    -0.00300
H71         H  0.28105068  0.99691654  0.24590014     0.14300
H72         H  0.35362386  0.05309442  0.17274964     0.14100
O73         O  0.21554669  0.47803458  0.39903183    -0.80800
O74         O  0.30018825  0.05656348  0.03997765    -0.80800
O75         O  0.19903033  0.02847101  0.99681209    -0.80800
O76         O  0.29819249  0.01217422  0.40885089    -0.80700
O77         O  0.24840765  0.05444915  0.00650256    -0.80900
O78         O  0.26790845  0.47487179  0.40317589    -0.80800
O79         O  0.31581017  0.05727541  0.46880799    -0.80800
O80         O  0.23102294  0.02046150  0.42810498    -0.80800
C81         C  0.22583997  0.50571271  0.38883170     1.08900
C82         C  0.31732423  0.06704606  0.00587120     1.08800
C83         C  0.22246959  0.05368589  0.00124005     1.08900
C84         C  0.28906198  0.50175987  0.39394415     1.08800
O85         O  0.24612158  0.44112108  0.48614116    -0.80800
O86         O  0.24731483  0.03683628  0.09200252    -0.80800
O87         O  0.16926261  0.48071263  0.99683025    -0.80800
O88         O  0.30957953  0.01000563  0.03751587    -0.80800
O89         O  0.26612976  0.99625244  0.07476430    -0.80800
O90         O  0.19562951  0.44481087  0.48249596    -0.80800
O91         O  0.29554077  0.46985569  0.47241770    -0.80700
O92         O  0.20644130  0.99769557  0.06090755    -0.80800
Co93       Co  0.23246660  0.46210659  0.44595565     1.51500
Co94       Co  0.25569782  0.02244127  0.03886777     1.51700
Co95       Co  0.21305618  0.99966766  0.99304864     1.51600
Co96       Co  0.30460315  0.01434389  0.47334925     1.51500
O97         O  0.25940301  0.00330801  0.48318666    -1.42700
C98         C  0.27243562  0.44372788  0.48258234     1.08800
C99         C  0.21926572  0.01538953  0.09422265     1.08900
C100        C  0.17436607  0.45068335  0.47610080     1.08900
C101        C  0.29379511  0.00153395  0.07332366     1.08800
O102        O  0.99362094  0.23909013  0.43353128    -0.80800
O103        O  0.44037530  0.25433427  0.05113282    -0.80800
O104        O  0.46203878  0.17726566  0.99940772    -0.80800
O105        O  0.99894914  0.29936736  0.43154297    -0.80700
O106        O  0.44019301  0.20347448  0.02203464    -0.80900
O107        O  0.03914807  0.29547517  0.40835855    -0.80800
O108        O  0.44426231  0.26409637  0.48903303    -0.80800
O109        O  0.48205709  0.22756990  0.43552783    -0.80800
C110        C  0.99786456  0.21662764  0.43706472     1.08900
C111        C  0.42846432  0.25799779  0.01612263     1.08800
C112        C  0.43776881  0.17781110  0.01052378     1.08900
C113        C  0.01798706  0.30150174  0.40031589     1.08800
O114        O  0.05622582  0.31724175  0.49122069    -0.80800
O115        O  0.46274370  0.22341491  0.10461715    -0.80800
O116        O  0.02547991  0.21729282  0.00227082    -0.80800
O117        O  0.98579142  0.30823566  0.05772248    -0.80800
O118        O  0.50334306  0.28222092  0.08050469    -0.80800
O119        O  0.05584306  0.26549819  0.46463615    -0.80800
O120        O  0.03157860  0.34194600  0.48900851    -0.80700
O121        O  0.49672745  0.21773592  0.06389389    -0.80800
Co122      Co  0.02270717  0.27708595  0.46347848     1.51500
Co123      Co  0.47524814  0.24440985  0.04950752     1.51700
Co124      Co  0.48668003  0.22058355  0.99729665     1.51600
Co125      Co  0.98747896  0.29648260  0.99383456     1.51500
O126        O  0.50023890  0.26509568  0.99509083    -1.42700
C127        C  0.05667663  0.34272938  0.48995517     1.08800
C128        C  0.48313218  0.21540652  0.10147569     1.08900
C129        C  0.06754399  0.26261785  0.50006685     1.08900
C130        C  0.49688693  0.30341896  0.07910616     1.08800
O131        O  0.19419247  0.25432423  0.46940078    -0.80800
O132        O  0.28360756  0.25211112  0.09685737    -0.80800
O133        O  0.20016428  0.20951067  0.10162355    -0.80800
O134        O  0.29623445  0.32898881  0.51978944    -0.80700
O135        O  0.23566841  0.19584324  0.09941536    -0.80900
O136        O  0.24690312  0.30425509  0.50007519    -0.80800
O137        O  0.26476886  0.28328694  0.08826344    -0.80800
O138        O  0.17965065  0.23524283  0.04200396    -0.80800
C139        C  0.17776047  0.25082699  0.50353512     1.08900
C140        C  0.27652979  0.27120633  0.11244097     1.08800
C141        C  0.21605444  0.19988932  0.12094362     1.08900
C142        C  0.27220405  0.32973835  0.50843088     1.08800
O143        O  0.24681023  0.28414085  0.41717197    -0.80800
O144        O  0.24459548  0.18882158  0.00494087    -0.80800
O145        O  0.18310998  0.19923092  0.47225343    -0.80800
O146        O  0.31550941  0.28798834  0.53511597    -0.80800
O147        O  0.29445440  0.24305493  0.00194293    -0.80800
O148        O  0.22807741  0.22565019  0.43784666    -0.80800
O149        O  0.28653020  0.28809754  0.45586974    -0.80700
O150        O  0.19865524  0.16750890  0.03547583    -0.80800
Co151      Co  0.23843820  0.26284725  0.47137926     1.51500
Co152      Co  0.26351108  0.22090601  0.04848972     1.51700
Co153      Co  0.19240141  0.20429370  0.03776647     1.51600
Co154      Co  0.26978628  0.28271908  0.02385590     1.51500
O155        O  0.23731335  0.23800913  0.02654997    -1.42700
C156        C  0.27511977  0.29144360  0.41919914     1.08800
C157        C  0.21966348  0.16520931  0.01476696     1.08900
C158        C  0.20014032  0.20429422  0.43813821     1.08900
C159        C  0.31740642  0.26714745  0.01472645     1.08800
C160        C  0.11305257  0.26375951  0.46097022    -0.14000
C161        C  0.09759457  0.26293919  0.50040935     0.08200
C162        C  0.10132754  0.24648103  0.05114722    -0.14000
C163        C  0.13069952  0.24925460  0.04767186    -0.14000
C164        C  0.15131534  0.25682679  0.50214713     0.08200
C165        C  0.13966312  0.26081381  0.46178996    -0.14000
H166        H  0.10407665  0.26582724  0.42925933     0.09500
H167        H  0.09532367  0.25402249  0.08116936     0.12200
H168        H  0.14625490  0.25807343  0.07550116     0.12200
H169        H  0.15052589  0.26074115  0.43090267     0.12200
C170        C  0.39151243  0.27117945  0.05392960    -0.14000
C171        C  0.39990257  0.26035489  0.01666537     0.08200
C172        C  0.38048100  0.24669403  0.49143883    -0.14000
C173        C  0.35496350  0.25082352  0.48797423    -0.14000
C174        C  0.34815894  0.26934722  0.01378853     0.08200
C175        C  0.36600631  0.27589115  0.05236310    -0.14000
H176        H  0.40485751  0.27629678  0.08403680     0.12200
H177        H  0.38462661  0.23438897  0.46562866     0.12200
H178        H  0.33947096  0.24083986  0.46027856     0.12200
H179        H  0.35936672  0.28329374  0.08189269     0.12200
C180        C  0.30174754  0.41520809  0.49658083    -0.14000
C181        C  0.27396199  0.41534143  0.48982159     0.08200
C182        C  0.24584682  0.38714816  0.49096087    -0.14000
C183        C  0.24536774  0.35973168  0.49802105    -0.14000
C184        C  0.27297476  0.35940095  0.50456483     0.08200
C185        C  0.30122737  0.38748138  0.50411235    -0.14000
H186        H  0.32367261  0.43634772  0.49619513     0.12200
H187        H  0.22380940  0.38606478  0.48585000     0.12200
H188        H  0.22326947  0.33870653  0.49791613     0.12200
H189        H  0.32299165  0.38797124  0.50869640     0.12200
C190        C  0.19181982  0.08040681  0.01243218    -0.14000
C191        C  0.21958369  0.08120141  0.99968950     0.08200
C192        C  0.24530978  0.10881969  0.98783336    -0.14000
C193        C  0.24435574  0.13559099  0.99059113    -0.14000
C194        C  0.21760270  0.13554540  0.00600510     0.08200
C195        C  0.19099586  0.10756659  0.01608932    -0.14000
H196        H  0.17135553  0.05904369  0.02157373     0.12200
H197        H  0.26664265  0.10973874  0.97734181     0.12200
H198        H  0.26525834  0.15655011  0.98232984     0.12200
H199        H  0.17009685  0.10683710  0.02796280     0.12200
C200        C  0.11629179  0.42551722  0.46857454    -0.14000
C201        C  0.14264738  0.42586965  0.48530194     0.08200
C202        C  0.13931015  0.40009574  0.50809828    -0.14000
C203        C  0.11102516  0.37360782  0.51075747    -0.14000
C204        C  0.08524355  0.37226043  0.49139851     0.08200
C205        C  0.08740140  0.39870983  0.47199095    -0.14000
H206        H  0.11830769  0.44514618  0.45119053     0.12200
H207        H  0.15902037  0.39974848  0.52238918     0.12200
H208        H  0.10941492  0.35373496  0.52681408     0.12200
H209        H  0.06726056  0.39808855  0.45738874     0.12200
C210        C  0.35287744  0.11984402  0.03497467    -0.14000
C211        C  0.34766279  0.09577670  0.00702088     0.08200
C212        C  0.37228101  0.09882961  0.98034816    -0.14000
C213        C  0.40151986  0.12523080  0.98183271    -0.14000
C214        C  0.40670778  0.14962575  0.00910664     0.08200
C215        C  0.38197523  0.14669523  0.03550852    -0.14000
H216        H  0.33438152  0.11803980  0.05597798     0.12200
H217        H  0.36907849  0.08051808  0.95889851     0.12200
H218        H  0.42005728  0.12668841  0.96115001     0.12200
H219        H  0.38529830  0.16498528  0.05711386     0.12200
C220        C  0.29903905  0.00069757  0.15530812    -0.17100
C221        C  0.30972855  0.00113661  0.11406564    -0.32200
H222        H  0.27630848  0.99828140  0.16037130     0.12000
H223        H  0.33275721  0.00401238  0.11004578     0.12500
C224        C  0.31641503  0.00414223  0.32254570    -0.17100
C225        C  0.30478948  0.50906414  0.35048584    -0.32200
H226        H  0.33541410  0.01968360  0.34344048     0.12000
H227        H  0.32872790  0.52735845  0.34844333     0.12500
C228        C  0.29684403  0.30874723  0.17238442    -0.17100
C229        C  0.28331347  0.27968239  0.15915591    -0.32200
H230        H  0.30352903  0.32686325  0.14821601     0.12000
H231        H  0.27988271  0.26197993  0.18253580     0.12500
C232        C  0.28422372  0.29608107  0.33872695    -0.17100
C233        C  0.29521860  0.30378399  0.38001193    -0.32200
H234        H  0.26027161  0.27832934  0.33367261     0.12000
H235        H  0.31952209  0.32043644  0.38515270     0.12500
C236        C  0.33379570  0.41283393  0.29022950    -0.14000
C237        C  0.33391484  0.39486817  0.25502318     0.08200
C238        C  0.33725205  0.40626517  0.21174909    -0.14000
C239        C  0.33846478  0.43399270  0.20384383    -0.14000
C240        C  0.33560366  0.45065290  0.23882922     0.08200
C241        C  0.33420587  0.44013906  0.28226567    -0.14000
H242        H  0.33231043  0.40535329  0.32432007     0.12200
H243        H  0.33742131  0.39327342  0.18381198     0.12200
H244        H  0.34071062  0.44181440  0.16982718     0.12200
H245        H  0.33188211  0.45201822  0.31011902     0.12200
C246        C  0.50330316  0.31084458  0.15883479    -0.17100
C247        C  0.49976401  0.32089026  0.11948870    -0.32200
H248        H  0.50579333  0.29059623  0.15977512     0.12000
H249        H  0.99580125  0.34030138  0.12938728     0.12500
C250        C  0.99127987  0.31239617  0.34044618    -0.17100
C251        C  0.01561108  0.31060924  0.35499732    -0.32200
H252        H  0.51845718  0.29501285  0.31981120     0.12000
H253        H  0.03538556  0.31725905  0.33288882     0.12500
C254        C  0.43455341  0.35029342  0.28620387    -0.14000
C255        C  0.44351402  0.34235577  0.24659463     0.08200
C256        C  0.42403664  0.33484890  0.20968560    -0.14000
C257        C  0.39506667  0.33321575  0.21351592    -0.14000
C258        C  0.38536906  0.33888761  0.25433829     0.08200
C259        C  0.40577124  0.34829844  0.29013333    -0.14000
H260        H  0.44941152  0.35691985  0.31492295     0.12200
H261        H  0.43041219  0.32863490  0.17884342     0.12200
H262        H  0.37960970  0.32594513  0.18545765     0.12200
H263        H  0.39905259  0.35334982  0.32165700     0.12200
C264        C  0.21269985  0.02126432  0.17378377    -0.17100
C265        C  0.20052826  0.00914993  0.13466182    -0.32200
H266        H  0.23766725  0.03591115  0.17694387     0.12000
H267        H  0.23959036  0.52412453  0.15278155     0.12500
C268        C  0.19084676  0.98401498  0.33118311    -0.17100
C269        C  0.21370227  0.00548871  0.35557229    -0.32200
H270        H  0.17833691  0.96069279  0.34315870     0.12000
H271        H  0.22722702  0.53823648  0.34062182     0.12500
C272        C  0.09242437  0.43732943  0.20144999    -0.14000
C273        C  0.10451320  0.45758791  0.23702431     0.08200
C274        C  0.08554910  0.45314715  0.27390825    -0.14000
C275        C  0.05616845  0.42728872  0.27724566    -0.14000
C276        C  0.04528260  0.40519181  0.24388679     0.08200
C277        C  0.06288917  0.41119091  0.20488855    -0.14000
H278        H  0.10681973  0.44023998  0.17292874     0.12200
H279        H  0.09443046  0.46859961  0.30166228     0.12200
H280        H  0.04289845  0.42342583  0.30735863     0.12200
H281        H  0.05509510  0.39440454  0.17882501     0.12200
C282        C  0.21090218  0.19222100  0.16876632    -0.17100
C283        C  0.18451594  0.18684806  0.18885846    -0.32200
H284        H  0.22809974  0.18955183  0.18710125     0.12000
H285        H  0.16632259  0.18700384  0.16936974     0.12500
C286        C  0.19807370  0.19519760  0.35679006    -0.17100
C287        C  0.18572138  0.18649367  0.39776066    -0.32200
H288        H  0.22106820  0.21491639  0.35244249     0.12000
H289        H  0.16241546  0.16708031  0.40119356     0.12500
C290        C  0.13351572  0.07687968  0.30151197    -0.14000
C291        C  0.14444572  0.09941927  0.26839040     0.08200
C292        C  0.15594216  0.09437086  0.22876823    -0.14000
C293        C  0.15903724  0.06845885  0.22409314    -0.14000
C294        C  0.15064837  0.04729810  0.25904058     0.08200
C295        C  0.13640939  0.05105808  0.29679153    -0.14000
H296        H  0.12453665  0.08022433  0.33227955     0.12200
H297        H  0.16493871  0.11165670  0.20296384     0.12200
H298        H  0.17006521  0.06620574  0.19468939     0.12200
H299        H  0.12892567  0.03476583  0.32380367     0.12200
C300        C  0.48997692  0.21231030  0.18184521    -0.17100
C301        C  0.49280637  0.20457463  0.14049658    -0.32200
H302        H  0.48035545  0.22718532  0.18686521     0.12000
H303        H  0.00287557  0.19276416  0.15011919     0.12500
C304        C  0.98918795  0.20663831  0.35791903    -0.17100
C305        C  0.99427242  0.19809401  0.39774293    -0.32200
H306        H  0.98472268  0.22533323  0.35562307     0.12000
H307        H  0.99903727  0.17965664  0.40038415     0.12500
C308        C  0.04998550  0.15184698  0.25207594    -0.14000
C309        C  0.05361586  0.18081572  0.25938550     0.08200
C310        C  0.08348102  0.20555308  0.26638828    -0.14000
C311        C  0.10883581  0.20108620  0.26954462    -0.14000
C312        C  0.10495848  0.17176069  0.26608637     0.08200
C313        C  0.07556159  0.14732541  0.25536247    -0.14000
H314        H  0.02708218  0.13235882  0.24709112     0.12200
H315        H  0.08690307  0.22808114  0.27183932     0.12200
H316        H  0.13142885  0.22049076  0.27673936     0.12200
H317        H  0.07203257  0.12460061  0.25239440     0.12200
C318        C  0.44004218  0.11631432  0.21167685    -0.14000
C319        C  0.45253094  0.12431368  0.25434384     0.08200
C320        C  0.43773661  0.10320700  0.28902268    -0.14000
C321        C  0.41083351  0.07515189  0.28124295    -0.14000
C322        C  0.39823357  0.06734311  0.23850425     0.08200
C323        C  0.41360559  0.08820138  0.20380317    -0.14000
H324        H  0.45004774  0.13201341  0.18418010     0.12200
H325        H  0.44675464  0.10837861  0.32228306     0.12200
H326        H  0.39958362  0.06007327  0.30909054     0.12200
H327        H  0.40521325  0.08304950  0.17021756     0.12200
C328        C  0.51372443  0.20090776  0.79831734     0.85900
C329        C  0.02695206  0.20055629  0.80336817    -0.54400
C330        C  0.02801345  0.18376262  0.76925106     0.08800
C331        C  0.00026452  0.17241351  0.73788917     0.19700
C332        C  0.50665100  0.21599033  0.75979731    -0.55100
C333        C  0.99841524  0.20080516  0.72471718     0.08900
C334        C  0.48645531  0.16800024  0.79971969    -0.54600
C335        C  0.48117235  0.15273430  0.76059058     0.09500
H336        H  0.04461429  0.20980429  0.82888036     0.14000
H337        H  0.00172187  0.15942980  0.70946807    -0.00300
H338        H  0.50499197  0.23645776  0.76335990     0.14300
H339        H  0.47173503  0.15843137  0.82871775     0.14100
C340        C  0.17994093  0.17842889  0.81596700     0.85900
C341        C  0.17092935  0.14495693  0.81296759    -0.54400
C342        C  0.15316035  0.13028328  0.77715399     0.08800
C343        C  0.14548229  0.15053671  0.74774272     0.19700
C344        C  0.19567496  0.19249721  0.77091596    -0.55100
C345        C  0.17728755  0.17782404  0.73515211     0.08900
C346        C  0.14929101  0.17838137  0.81469730    -0.54600
C347        C  0.13106111  0.16375848  0.77939349     0.09500
H348        H  0.17927834  0.13421015  0.83599436     0.14000
H349        H  0.13070077  0.13850057  0.71890431    -0.00300
H350        H  0.21846193  0.21267031  0.76772594     0.14300
H351        H  0.14281341  0.18961775  0.83951582     0.14100
C352        C  0.19595966  0.00518949  0.78738567     0.85900
C353        C  0.15910300  0.47265816  0.76823812    -0.54400
C354        C  0.14400752  0.47260769  0.73066309     0.08800
C355        C  0.16740758  0.00853791  0.71740334     0.19700
C356        C  0.21727807  0.01860022  0.74732247    -0.55100
C357        C  0.20237335  0.01990021  0.71041260     0.08900
C358        C  0.18124715  0.02510409  0.79335213    -0.54600
C359        C  0.16645675  0.02719738  0.75679108     0.09500
H360        H  0.15025668  0.45318412  0.79059598     0.14000
H361        H  0.15524729  0.00994289  0.68757346    -0.00300
H362        H  0.24173502  0.02538772  0.74756485     0.14300
H363        H  0.18352797  0.03758495  0.82371460     0.14100
C364        C  0.99753150  0.32062095  0.79484155     0.85900
C365        C  0.46268498  0.32355556  0.77964297    -0.54400
C366        C  0.46107447  0.33593445  0.74064656     0.08800
C367        C  0.49153873  0.35028103  0.71346506     0.19700
C368        C  0.98827577  0.30045638  0.75352722    -0.55100
C369        C  0.49907957  0.32424166  0.70892764     0.08900
C370        C  0.02877483  0.34895399  0.78266036    -0.54600
C371        C  0.02816722  0.36345934  0.74482389     0.09500
H372        H  0.44317335  0.31295145  0.80245863     0.14000
H373        H  0.49011110  0.36095519  0.68218781    -0.00300
H374        H  0.98275449  0.27686094  0.75427187     0.14300
H375        H  0.04972451  0.35765252  0.80197597     0.14100
C376        C  0.29650860  0.31172194  0.79993731     0.85900
C377        C  0.30621656  0.34552987  0.80077187    -0.54400
C378        C  0.32359621  0.36193856  0.76513745     0.08800
C379        C  0.32947943  0.34271217  0.73172915     0.19700
C380        C  0.27977243  0.30008942  0.75569139    -0.55100
C381        C  0.29721881  0.31646257  0.72010593     0.08900
C382        C  0.32693116  0.31115104  0.79428962    -0.54600
C383        C  0.34419488  0.32764329  0.75845663     0.09500
H384        H  0.29862148  0.35509352  0.82664278     0.14000
H385        H  0.34366543  0.35523425  0.70238754    -0.00300
H386        H  0.25671265  0.28040518  0.75259136     0.14300
H387        H  0.33413839  0.29897562  0.81643368     0.14100
C388        C  0.31675633  0.00488980  0.69688164     0.85900
C389        C  0.31810988  0.47900987  0.70049425    -0.54400
C390        C  0.33623968  0.47858831  0.73368048     0.08800
C391        C  0.35139048  0.00948525  0.76413562     0.19700
C392        C  0.30026782  0.00038556  0.74194796    -0.55100
C393        C  0.31849544  0.00276241  0.77743436     0.08900
C394        C  0.34651861  0.03585052  0.70017147    -0.54600
C395        C  0.36531061  0.03855311  0.73473915     0.09500
H396        H  0.30549063  0.46004023  0.67813856     0.14000
H397        H  0.36601375  0.01108930  0.79267663    -0.00300
H398        H  0.27682856  0.99629219  0.74543037     0.14300
H399        H  0.35191975  0.05403596  0.67655189     0.14100
O400        O  0.20289081  0.47400433  0.90810760    -0.80800
O401        O  0.30559874  0.06281725  0.53707199    -0.80800
O402        O  0.20476241  0.03370642  0.49421807    -0.80800
O403        O  0.28933451  0.00702707  0.90998393    -0.80700
O404        O  0.25413242  0.06061726  0.50156153    -0.80900
O405        O  0.25141765  0.46962482  0.90025141    -0.80800
O406        O  0.30953796  0.05160983  0.97099102    -0.80800
O407        O  0.21999841  0.01078930  0.93036136    -0.80800
C408        C  0.20245937  0.49804212  0.90104200     1.08900
C409        C  0.32306594  0.07310956  0.50323046     1.08800
C410        C  0.22779496  0.05924026  0.49782316     1.08900
C411        C  0.27766263  0.49076530  0.88869675     1.08800
O412        O  0.24421514  0.44266099  0.98814640    -0.80800
O413        O  0.25187306  0.04334316  0.58683537    -0.80800
O414        O  0.18118666  0.47695913  0.46189009    -0.80800
O415        O  0.31499987  0.01661924  0.53854972    -0.80800
O416        O  0.27030528  0.00225644  0.57235151    -0.80800
O417        O  0.19049842  0.45108045  0.99910316    -0.80800
O418        O  0.29533060  0.46604434  0.97804309    -0.80700
O419        O  0.21232699  0.00241654  0.55692262    -0.80800
Co420      Co  0.22616412  0.46555767  0.95353370     1.51500
Co421      Co  0.26113563  0.02869213  0.53490818     1.51700
Co422      Co  0.22005435  0.00593727  0.48909463     1.51600
Co423      Co  0.29759087  0.00836987  0.97344295     1.51500
O424        O  0.25253169  0.99748002  0.98599766    -1.42700
C425        C  0.26975302  0.44176548  0.98650230     1.08800
C426        C  0.22443802  0.02082217  0.58974092     1.08900
C427        C  0.16641767  0.45447960  0.00213297     1.08900
C428        C  0.29784017  0.00732534  0.57312420     1.08800
O429        O  0.03054579  0.24944625  0.93740177    -0.80800
O430        O  0.44400895  0.25660337  0.55949281    -0.80800
O431        O  0.46793934  0.18341479  0.49857486    -0.80800
O432        O  0.98986608  0.28903982  0.93013155    -0.80700
O433        O  0.44541434  0.20851625  0.52336931    -0.80900
O434        O  0.04003136  0.30626816  0.93277951    -0.80800
O435        O  0.44317070  0.26285287  0.98027964    -0.80800
O436        O  0.47890292  0.22082313  0.93402322    -0.80800
C437        C  0.00343889  0.22952221  0.92429233     1.08900
C438        C  0.43039975  0.25872372  0.52550556     1.08800
C439        C  0.44342575  0.18339939  0.51021708     1.08900
C440        C  0.01602462  0.30069122  0.91110175     1.08800
O441        O  0.05855463  0.31716266  0.02423416    -0.80800
O442        O  0.46793557  0.22584081  0.60611926    -0.80800
O443        O  0.05210018  0.25721115  0.53526240    -0.80800
O444        O  0.01400169  0.31003808  0.56334333    -0.80800
O445        O  0.50737438  0.28563794  0.58585151    -0.80800
O446        O  0.05388835  0.26177314  0.03005657    -0.80800
O447        O  0.03017261  0.33435666  0.99402555    -0.80700
O448        O  0.50289730  0.22306994  0.56381631    -0.80800
Co449      Co  0.04372984  0.28268228  0.98368568     1.51500
Co450      Co  0.47985566  0.24858372  0.55280782     1.51700
Co451      Co  0.49150215  0.22691178  0.49819830     1.51600
Co452      Co  0.00115582  0.30045652  0.50104856     1.51500
O453        O  0.50345320  0.27105083  0.49822270    -1.42700
C454        C  0.05477873  0.33919675  0.01378567     1.08800
C455        C  0.48888361  0.21878365  0.60154727     1.08900
C456        C  0.05145875  0.23712071  0.01784182     1.08900
C457        C  0.50006201  0.30624105  0.58573595     1.08800
O458        O  0.18719955  0.24813989  0.97254487    -0.80800
O459        O  0.28466088  0.25399735  0.59779963    -0.80800
O460        O  0.20203338  0.21364547  0.60094759    -0.80800
O461        O  0.29005343  0.32570951  0.02094728    -0.80700
O462        O  0.23620825  0.19827659  0.59915543    -0.80900
O463        O  0.24007138  0.30040344  0.00485360    -0.80800
O464        O  0.26742141  0.28629405  0.58677250    -0.80800
O465        O  0.18313018  0.24078574  0.53879949    -0.80800
C466        C  0.17070325  0.24227358  0.00740162     1.08900
C467        C  0.27748103  0.27326958  0.61228428     1.08800
C468        C  0.21711908  0.20315754  0.62054821     1.08900
C469        C  0.26540834  0.32609526  0.01233337     1.08800
O470        O  0.24042741  0.28235864  0.92026607    -0.80800
O471        O  0.24612332  0.19204710  0.50474895    -0.80800
O472        O  0.18088943  0.19486142  0.97307401    -0.80800
O473        O  0.31206598  0.28645039  0.03279219    -0.80800
O474        O  0.29652701  0.24494972  0.50344221    -0.80800
O475        O  0.22524438  0.22445241  0.93868007    -0.80800
O476        O  0.28073943  0.28555626  0.95628926    -0.80700
O477        O  0.20003633  0.17100632  0.53464209    -0.80800
Co478      Co  0.23307932  0.26012911  0.97383888     1.51500
Co479      Co  0.26501250  0.22319931  0.54902651     1.51700
Co480      Co  0.19477592  0.20867291  0.53654714     1.51600
Co481      Co  0.27423117  0.28575180  0.52304976     1.51500
O482        O  0.24035908  0.24136908  0.52585359    -1.42700
C483        C  0.26875709  0.28946164  0.92067216     1.08800
C484        C  0.22107649  0.16855289  0.51406974     1.08900
C485        C  0.19821304  0.20160427  0.93880344     1.08900
C486        C  0.31990537  0.26787466  0.51790684     1.08800
C487        C  0.08903734  0.22580342  0.97746677    -0.14000
C488        C  0.08001928  0.23462212  0.01629723     0.08200
C489        C  0.10985142  0.25989972  0.54070875    -0.14000
C490        C  0.13623288  0.25683816  0.54149654    -0.14000
C491        C  0.14020706  0.24129482  0.00856568     0.08200
C492        C  0.11895270  0.22939437  0.97346577    -0.14000
H493        H  0.07342552  0.21730709  0.94958967     0.09500
H494        H  0.09865034  0.25914302  0.57161197     0.12200
H495        H  0.14454481  0.25391159  0.57329685     0.12200
H496        H  0.12528458  0.22242116  0.94327743     0.12200
C497        C  0.39507666  0.27496655  0.55984192    -0.14000
C498        C  0.40079931  0.25868030  0.52725321     0.08200
C499        C  0.38251179  0.25477378  0.97778565    -0.14000
C500        C  0.35671857  0.25875550  0.97659396    -0.14000
C501        C  0.34941194  0.26762509  0.51978186     0.08200
C502        C  0.36960932  0.27958645  0.55591040    -0.14000
H503        H  0.41078843  0.28493610  0.58716380     0.12200
H504        H  0.38860558  0.24681932  0.94831846     0.12200
H505        H  0.34298608  0.25296048  0.94676857     0.12200
H506        H  0.36530782  0.29192889  0.58162164     0.12200
C507        C  0.29610854  0.41132968  0.00215130    -0.14000
C508        C  0.26877139  0.41255384  0.99693411     0.08200
C509        C  0.24011428  0.38514068  0.99990897    -0.14000
C510        C  0.23879803  0.35710767  0.00620635    -0.14000
C511        C  0.26616715  0.35581803  0.01033410     0.08200
C512        C  0.29480377  0.38335785  0.00902752    -0.14000
H513        H  0.31855237  0.43193907  0.00020209     0.12200
H514        H  0.21847112  0.38519279  0.99605947     0.12200
H515        H  0.21646361  0.33646580  0.00698971     0.12200
H516        H  0.31640725  0.38323820  0.01186994     0.12200
C517        C  0.19609068  0.08434979  0.51321123    -0.14000
C518        C  0.22370380  0.08605722  0.49728359     0.08200
C519        C  0.24797021  0.11382022  0.48278122    -0.14000
C520        C  0.24580905  0.13991171  0.48599555    -0.14000
C521        C  0.21940311  0.13912073  0.50468643     0.08200
C522        C  0.19414298  0.11090110  0.51745892    -0.14000
H523        H  0.17673726  0.06280064  0.52437950     0.12200
H524        H  0.26903085  0.11539596  0.46977047     0.12200
H525        H  0.26574024  0.16108814  0.47537680     0.12200
H526        H  0.17357368  0.10956452  0.53194620     0.12200
C527        C  0.10837671  0.42417338  0.99733814    -0.14000
C528        C  0.13625984  0.42762440  0.01388977     0.08200
C529        C  0.13574676  0.40315672  0.03644079    -0.14000
C530        C  0.10847855  0.37506930  0.03951896    -0.14000
C531        C  0.08109775  0.37062513  0.01954513     0.08200
C532        C  0.08096845  0.39579190  0.99998453    -0.14000
H533        H  0.10823378  0.44267833  0.97962730     0.12200
H534        H  0.15687966  0.40529213  0.04988381     0.12200
H535        H  0.10938545  0.35633476  0.05525302     0.12200
H536        H  0.06024045  0.39311603  0.98435448     0.12200
C537        C  0.35870681  0.12533452  0.53375097    -0.14000
C538        C  0.35325179  0.10195060  0.50430203     0.08200
C539        C  0.37761324  0.10564198  0.47638894    -0.14000
C540        C  0.40695043  0.13185520  0.47852229    -0.14000
C541        C  0.41243162  0.15536805  0.50776726     0.08200
C542        C  0.38786930  0.15197111  0.53501386    -0.14000
H543        H  0.34038833  0.12308850  0.55563701     0.12200
H544        H  0.37419420  0.08790808  0.45358412     0.12200
H545        H  0.42533253  0.13384046  0.45694145     0.12200
H546        H  0.39140869  0.16969329  0.55792599     0.12200
C547        C  0.29855667  0.00261301  0.65552910    -0.17100
C548        C  0.31164770  0.00529296  0.61522718    -0.32200
H549        H  0.27547041  0.99971381  0.65856348     0.12000
H550        H  0.33497851  0.00860203  0.61334742     0.12500
C551        C  0.30918597  0.00119281  0.82478309    -0.17100
C552        C  0.28589620  0.49411802  0.84135533    -0.32200
H553        H  0.32736359  0.01631012  0.84707605     0.12000
H554        H  0.26698766  0.48164995  0.81821011     0.12500
C555        C  0.28769491  0.30800388  0.67410603    -0.17100
C556        C  0.28235792  0.28105053  0.65924156    -0.32200
H557        H  0.28933782  0.32536885  0.65127249     0.12000
H558        H  0.28403854  0.26516708  0.68178396     0.12500
C559        C  0.27689217  0.29477406  0.83978075    -0.17100
C560        C  0.28837220  0.30188443  0.88088772    -0.32200
H561        H  0.25265901  0.27792201  0.83512691     0.12000
H562        H  0.31288977  0.31764952  0.88547458     0.12500
C563        C  0.33605136  0.40555148  0.71419719    -0.14000
C564        C  0.33286809  0.39424665  0.75751603     0.08200
C565        C  0.33589179  0.41323332  0.79315565    -0.14000
C566        C  0.33899426  0.44173174  0.78547015    -0.14000
C567        C  0.33961416  0.45181362  0.74210047     0.08200
C568        C  0.33972666  0.43420858  0.70658772    -0.14000
H569        H  0.33369979  0.39171849  0.68576014     0.12200
H570        H  0.33456979  0.40566359  0.82694497     0.12200
H571        H  0.33889219  0.45488757  0.81345113     0.12200
H572        H  0.34096129  0.44189076  0.67283072     0.12200
C573        C  0.50343809  0.31201965  0.66663339    -0.17100
C574        C  0.50251720  0.32305266  0.62654184    -0.32200
H575        H  0.50556848  0.29159674  0.66870445     0.12000
H576        H  0.01660404  0.33830529  0.63791621     0.12500
C577        C  0.99563191  0.30400600  0.83786097    -0.17100
C578        C  0.01980433  0.31095475  0.86455420    -0.32200
H579        H  0.47121054  0.30143246  0.85119929     0.12000
H580        H  0.04342709  0.32602696  0.85336538     0.12500
C581        C  0.42971406  0.36135678  0.73361464    -0.14000
C582        C  0.43180753  0.33495277  0.72946893     0.08200
C583        C  0.40444328  0.30638770  0.72945029    -0.14000
C584        C  0.37578915  0.30405102  0.73781590    -0.14000
C585        C  0.37399366  0.33027769  0.74543021     0.08200
C586        C  0.40083792  0.35904250  0.74111617    -0.14000
H587        H  0.45061230  0.38355295  0.73492783     0.12200
H588        H  0.40565577  0.28571248  0.72700336     0.12200
H589        H  0.35514789  0.28170545  0.74002196     0.12200
H590        H  0.39969804  0.37951222  0.74643252     0.12200
C591        C  0.21899515  0.02962182  0.66792076    -0.17100
C592        C  0.20639739  0.01413664  0.63089432    -0.32200
H593        H  0.24321768  0.04731044  0.66823200     0.12000
H594        H  0.17173728  0.49158623  0.61309938     0.12500
C595        C  0.21143374  0.00311934  0.82863525    -0.17100
C596        C  0.19406644  0.98925896  0.86432365    -0.32200
H597        H  0.23644995  0.01298876  0.82959014     0.12000
H598        H  0.17144272  0.50606778  0.85970548     0.12500
C599        C  0.11252570  0.41674778  0.71980191    -0.14000
C600        C  0.11410889  0.44516563  0.71949826     0.08200
C601        C  0.08640358  0.44607453  0.71937570    -0.14000
C602        C  0.05765011  0.41897523  0.72364187    -0.14000
C603        C  0.05652527  0.39087165  0.72828312     0.08200
C604        C  0.08404960  0.38991595  0.72428160    -0.14000
H605        H  0.13356984  0.41550621  0.72018543     0.12200
H606        H  0.08713877  0.46777592  0.71996917     0.12200
H607        H  0.03670192  0.42018589  0.72703498     0.12200
H608        H  0.08368025  0.36842715  0.72763180     0.12200
C609        C  0.21192132  0.19557048  0.66850900    -0.17100
C610        C  0.18479836  0.18807541  0.68832111    -0.32200
H611        H  0.22990884  0.19435863  0.68721495     0.12000
H612        H  0.16593488  0.18650466  0.66832956     0.12500
C613        C  0.19816975  0.19400167  0.85727195    -0.17100
C614        C  0.18527768  0.18403666  0.89781746    -0.32200
H615        H  0.22062702  0.21462602  0.85383758     0.12000
H616        H  0.16249633  0.16369523  0.90032112     0.12500
C617        C  0.13544270  0.07647580  0.79769066    -0.14000
C618        C  0.14717304  0.09959617  0.76543833     0.08200
C619        C  0.15948825  0.09542779  0.72603876    -0.14000
C620        C  0.16299871  0.06988496  0.72104168    -0.14000
C621        C  0.15419501  0.04837209  0.75541443     0.08200
C622        C  0.13877190  0.05096893  0.79262270    -0.14000
H623        H  0.12586677  0.07931557  0.82834830     0.12200
H624        H  0.16907264  0.11325063  0.70107409     0.12200
H625        H  0.17518860  0.06846097  0.69225797     0.12200
H626        H  0.13147842  0.03443974  0.81931217     0.12200
C627        C  0.49247596  0.21163443  0.68107608    -0.17100
C628        C  0.49839321  0.20700384  0.63950807    -0.32200
H629        H  0.48131356  0.22512778  0.68670653     0.12000
H630        H  0.96234296  0.22004022  0.68463985     0.12500
C631        C  0.99766014  0.22136119  0.84398239    -0.17100
C632        C  0.00008089  0.21210076  0.88453205    -0.32200
H633        H  0.99724482  0.24237981  0.83945944     0.12000
H634        H  0.00035563  0.19098386  0.88882471     0.12500
C635        C  0.05718449  0.16273251  0.80754082    -0.14000
C636        C  0.05120846  0.17372617  0.76833617     0.08200
C637        C  0.06889678  0.17696281  0.73035174    -0.14000
C638        C  0.09389406  0.17156908  0.73272156    -0.14000
C639        C  0.10115138  0.16278385  0.77304999     0.08200
C640        C  0.08181614  0.15728110  0.80986286    -0.14000
H641        H  0.04335371  0.15938205  0.83706274     0.12200
H642        H  0.06451589  0.18532321  0.69972044     0.12200
H643        H  0.10866296  0.17611735  0.70401661     0.12200
H644        H  0.08668478  0.15008147  0.84114034     0.12200
C645        C  0.44000944  0.11358072  0.71141367    -0.14000
C646        C  0.45327535  0.12199213  0.75352823     0.08200
C647        C  0.43835493  0.10167224  0.78910988    -0.14000
C648        C  0.41019432  0.07446034  0.78313562    -0.14000
C649        C  0.39636256  0.06659467  0.74122862     0.08200
C650        C  0.41224425  0.08621136  0.70531421    -0.14000
H651        H  0.45034263  0.12848173  0.68322398     0.12200
H652        H  0.44813779  0.10692934  0.82202290     0.12200
H653        H  0.39897025  0.06020473  0.81162811     0.12200
H654        H  0.40319697  0.08071614  0.67200379     0.12200
C655        C  0.50939719  0.68508459  0.31657971     0.85900
C656        C  0.02533665  0.68798850  0.31179301    -0.54400
C657        C  0.02593570  0.67141119  0.27689265     0.08800
C658        C  0.99909135  0.66231495  0.24434525     0.19700
C659        C  0.51162836  0.70417071  0.27535718    -0.55100
C660        C  0.00072875  0.69246605  0.23132166     0.08900
C661        C  0.47751995  0.65640590  0.31416677    -0.54600
C662        C  0.47211892  0.64085604  0.27550784     0.09500
H663        H  0.04278906  0.69635750  0.33759628     0.14000
H664        H  0.00008085  0.64918582  0.21581194    -0.00300
H665        H  0.51706190  0.72770218  0.27693082     0.14300
H666        H  0.46099775  0.64860628  0.34149084     0.14100
C667        C  0.18702996  0.68692469  0.30982220     0.85900
C668        C  0.18528510  0.65629882  0.30286399    -0.54400
C669        C  0.16873826  0.64094476  0.26638325     0.08800
C670        C  0.15451273  0.65739837  0.24100485     0.19700
C671        C  0.20008397  0.70420953  0.26572822    -0.55100
C672        C  0.18283983  0.68860865  0.22969911     0.08900
C673        C  0.15344089  0.67977835  0.31121885    -0.54600
C674        C  0.13615488  0.66417009  0.27577202     0.09500
H675        H  0.19752723  0.64825961  0.32356135     0.14000
H676        H  0.14077133  0.64481959  0.21167510    -0.00300
H677        H  0.22081487  0.72645651  0.26320683     0.14300
H678        H  0.14433251  0.68748344  0.33774957     0.14100
C679        C  0.18970783  0.49968562  0.27270523     0.85900
C680        C  0.15151873  0.96504506  0.26978325    -0.54400
C681        C  0.14051040  0.97178060  0.23282010     0.08800
C682        C  0.15815462  0.50475450  0.20722756     0.19700
C683        C  0.20032491  0.49551509  0.22673416    -0.55100
C684        C  0.18403025  0.49838601  0.19229456     0.08900
C685        C  0.19156981  0.53076481  0.26985013    -0.54600
C686        C  0.17518931  0.53357384  0.23589363     0.09500
H687        H  0.13956422  0.94273181  0.28552037     0.14000
H688        H  0.14474399  0.50696435  0.17963223    -0.00300
H689        H  0.21921517  0.49079309  0.22181646     0.14300
H690        H  0.20358356  0.54902545  0.29305318     0.14100
C691        C  0.00889659  0.82006228  0.29196924     0.85900
C692        C  0.47602409  0.82447633  0.29168621    -0.54400
C693        C  0.47090008  0.83672190  0.25463850     0.08800
C694        C  0.49723960  0.84806606  0.22001985     0.19700
C695        C  0.00894645  0.80331850  0.24958946    -0.55100
C696        C  0.50189678  0.82073953  0.21210030     0.08900
C697        C  0.03344030  0.85347332  0.28332789    -0.54600
C698        C  0.02886374  0.86528757  0.24532436     0.09500
H699        H  0.45948767  0.81501289  0.31897335     0.14000
H700        H  0.49319295  0.85777696  0.18946760    -0.00300
H701        H  0.01316892  0.78438434  0.24927389     0.14300
H702        H  0.05366189  0.86617112  0.30411806     0.14100
C703        C  0.30482427  0.81692426  0.29191685     0.85900
C704        C  0.31612385  0.85099266  0.29167445    -0.54400
C705        C  0.33497501  0.86665319  0.25665558     0.08800
C706        C  0.34033656  0.84607881  0.22457493     0.19700
C707        C  0.28894664  0.80557469  0.24759258    -0.55100
C708        C  0.30746418  0.82035847  0.21207183     0.08900
C709        C  0.33426100  0.81465169  0.28900104    -0.54600
C710        C  0.35315333  0.83044364  0.25429514     0.09500
H711        H  0.30886456  0.86137820  0.31669665     0.14000
H712        H  0.35594691  0.85837974  0.19638165    -0.00300
H713        H  0.26549434  0.78645842  0.24449472     0.14300
H714        H  0.34042043  0.80282501  0.31338406     0.14100
C715        C  0.31300111  0.50751567  0.19096936     0.85900
C716        C  0.32948709  0.98054072  0.19430918    -0.54400
C717        C  0.34869051  0.98305307  0.22791670     0.08800
C718        C  0.33788469  0.50246955  0.26394369     0.19700
C719        C  0.29334026  0.50318244  0.23236036    -0.55100
C720        C  0.30627738  0.50057201  0.27060548     0.08900
C721        C  0.34475155  0.53494244  0.20060566    -0.54600
C722        C  0.35770836  0.53236596  0.23849051     0.09500
H723        H  0.32049839  0.96210795  0.17057438     0.14000
H724        H  0.34885141  0.50115405  0.29507102    -0.00300
H725        H  0.27084390  0.50208922  0.23147131     0.14300
H726        H  0.35594498  0.55513253  0.17957501     0.14100
O727        O  0.21300027  0.97214514  0.41273981    -0.80800
O728        O  0.31483556  0.56535378  0.97625368    -0.80800
O729        O  0.21604300  0.54397215  0.00650246    -0.80800
O730        O  0.29799477  0.52196495  0.42302410    -0.80700
O731        O  0.26400980  0.57227193  0.98321356    -0.80900
O732        O  0.26201583  0.96367355  0.40871360    -0.80800
O733        O  0.33840026  0.53533403  0.49146744    -0.80800
O734        O  0.23791555  0.52568218  0.41833811    -0.80800
C735        C  0.22032567  0.99911892  0.40046351     1.08900
C736        C  0.33503072  0.55775831  0.98264560     1.08800
C737        C  0.23820989  0.56971965  0.99348258     1.08900
C738        C  0.28253702  0.98731397  0.38861230     1.08800
O739        O  0.25292474  0.94422348  0.50128400    -0.80800
O740        O  0.24942578  0.54153012  0.06805045    -0.80800
O741        O  0.17269491  0.96348224  0.98747227    -0.80800
O742        O  0.27137007  0.48507712  0.04258865    -0.80800
O743        O  0.29785047  0.53288886  0.06120180    -0.80800
O744        O  0.20185484  0.94774193  0.50632616    -0.80800
O745        O  0.30000653  0.97200107  0.47534297    -0.80700
O746        O  0.21581768  0.49397834  0.05506241    -0.80800
Co747      Co  0.23400095  0.95976670  0.45964949     1.51500
Co748      Co  0.28001200  0.55059679  0.01870269     1.51700
Co749      Co  0.21339856  0.50392274  0.99153552     1.51600
Co750      Co  0.29420489  0.50889187  0.48564486     1.51500
O751        O  0.25059480  0.49796407  0.48988516    -1.42700
C752        C  0.27912903  0.94741673  0.49327815     1.08800
C753        C  0.22886789  0.51560860  0.08197710     1.08900
C754        C  0.17738520  0.94781604  0.49668724     1.08900
C755        C  0.28576080  0.50489283  0.07118379     1.08800
O756        O  0.99571330  0.73938692  0.43236449    -0.80800
O757        O  0.44433638  0.74184239  0.00791076    -0.80800
O758        O  0.47463921  0.67286042  0.02818733    -0.80800
O759        O  0.00199374  0.80087319  0.45116906    -0.80700
O760        O  0.44429825  0.68931402  0.00376796    -0.80900
O761        O  0.03919999  0.79790317  0.41518988    -0.80800
O762        O  0.47416703  0.80067591  0.52893817    -0.80800
O763        O  0.51682026  0.71835010  0.45196134    -0.80800
C764        C  0.00080298  0.71739122  0.43270499     1.08900
C765        C  0.44501269  0.76529286  0.02209083     1.08800
C766        C  0.44987573  0.66788640  0.00861093     1.08900
C767        C  0.01812151  0.80488203  0.41538304     1.08800
O768        O  0.05692328  0.81421841  0.50037044    -0.80800
O769        O  0.46405155  0.69523196  0.09590855    -0.80800
O770        O  0.05313683  0.74487855  0.03002803    -0.80800
O771        O  0.01181220  0.78151146  0.08375585    -0.80800
O772        O  0.46755880  0.74973036  0.10008458    -0.80800
O773        O  0.05758492  0.76504631  0.46613534    -0.80800
O774        O  0.03358236  0.84005088  0.51750037    -0.80700
O775        O  0.51489723  0.71595864  0.09551755    -0.80800
Co776      Co  0.02313509  0.77499685  0.46800096     1.51500
Co777      Co  0.45680378  0.72024930  0.04971397     1.51700
Co778      Co  0.51602675  0.71328237  0.03010830     1.51600
Co779      Co  0.00717005  0.78442947  0.01972919     1.51500
O780        O  0.49960528  0.74267073  0.02454214    -1.42700
C781        C  0.05833857  0.83980958  0.50937536     1.08800
C782        C  0.48908277  0.70112298  0.11541096     1.08900
C783        C  0.06902468  0.76098793  0.50111081     1.08900
C784        C  0.49365544  0.77113847  0.11386192     1.08800
O785        O  0.19861714  0.76082815  0.46942725    -0.80800
O786        O  0.28002625  0.77066525  0.09546327    -0.80800
O787        O  0.20887990  0.72256534  0.09507950    -0.80800
O788        O  0.30563799  0.83210042  0.49951552    -0.80700
O789        O  0.24704029  0.71300143  0.09957684    -0.80900
O790        O  0.25433060  0.81064272  0.49777072    -0.80800
O791        O  0.31491013  0.80587362  0.05469929    -0.80800
O792        O  0.18713690  0.74296068  0.02841060    -0.80800
C793        C  0.18084534  0.75353373  0.50320230     1.08900
C794        C  0.30233761  0.79706233  0.09182919     1.08800
C795        C  0.22499225  0.71467295  0.11780801     1.08900
C796        C  0.28161313  0.83494385  0.49955405     1.08800
O797        O  0.25102718  0.79101544  0.41358693    -0.80800
O798        O  0.26203834  0.70703335  0.00797586    -0.80800
O799        O  0.18696143  0.70421109  0.46541751    -0.80800
O800        O  0.31925185  0.78328958  0.52094681    -0.80800
O801        O  0.30824420  0.73936282  0.06842106    -0.80800
O802        O  0.23191380  0.73246525  0.43292852    -0.80800
O803        O  0.28789356  0.78482306  0.44430221    -0.80700
O804        O  0.21470869  0.68232630  0.03365978    -0.80800
Co805      Co  0.24251218  0.76927224  0.46780524     1.51500
Co806      Co  0.27252372  0.74081683  0.04995915     1.51700
Co807      Co  0.20375333  0.71528135  0.03041110     1.51600
Co808      Co  0.29603619  0.78683178  0.99671929     1.51500
O809        O  0.24728135  0.75370436  0.02002886    -1.42700
C810        C  0.27748560  0.79310075  0.41113445     1.08800
C811        C  0.23733393  0.68214394  0.01492100     1.08900
C812        C  0.20459883  0.71037431  0.43202576     1.08900
C813        C  0.32440955  0.75077839  0.03364139     1.08800
C814        C  0.11604540  0.76591571  0.46222928    -0.14000
C815        C  0.09968396  0.76290668  0.50157636     0.08200
C816        C  0.11543772  0.76108073  0.03209374    -0.14000
C817        C  0.14274796  0.76012452  0.03136494    -0.14000
C818        C  0.15424159  0.75887860  0.50286703     0.08200
C819        C  0.14314269  0.76401500  0.46287684    -0.14000
H820        H  0.10736694  0.76872348  0.43080713     0.09500
H821        H  0.10559765  0.76170894  0.06363671     0.12200
H822        H  0.15337291  0.76021064  0.06272293     0.12200
H823        H  0.15473937  0.76544483  0.43192568     0.12200
C824        C  0.40705428  0.77502599  0.06071420    -0.14000
C825        C  0.41635665  0.76643293  0.02226826     0.08200
C826        C  0.39427319  0.75578894  0.49218392    -0.14000
C827        C  0.36474752  0.75127165  0.49806685    -0.14000
C828        C  0.35569173  0.75546045  0.03003720     0.08200
C829        C  0.37665168  0.76917345  0.06481540    -0.14000
H830        H  0.42268642  0.78458714  0.08843688     0.12200
H831        H  0.39676893  0.73913257  0.47318681     0.12200
H832        H  0.34532563  0.73152331  0.48328554     0.12200
H833        H  0.36950198  0.77537459  0.09494132     0.12200
C834        C  0.30806870  0.91878150  0.48136313    -0.14000
C835        C  0.28357671  0.92080159  0.50121191     0.08200
C836        C  0.26061784  0.89521594  0.52448046    -0.14000
C837        C  0.26080012  0.86778723  0.52518648    -0.14000
C838        C  0.28423914  0.86524930  0.50340319     0.08200
C839        C  0.30848461  0.89125417  0.48268930    -0.14000
H840        H  0.32600009  0.93792573  0.46299180     0.12200
H841        H  0.24154266  0.89592252  0.54057340     0.12200
H842        H  0.24204382  0.84820859  0.54186670     0.12200
H843        H  0.32679524  0.88983507  0.46549415     0.12200
C844        C  0.20967244  0.59748614  0.01215469    -0.14000
C845        C  0.23553907  0.59753482  0.99350159     0.08200
C846        C  0.26068003  0.62534166  0.97852920    -0.14000
C847        C  0.26073232  0.65263727  0.98402967    -0.14000
C848        C  0.23557392  0.65284188  0.00452593     0.08200
C849        C  0.20969266  0.62491018  0.01755213    -0.14000
H850        H  0.19003972  0.57652517  0.02406536     0.12200
H851        H  0.28097143  0.62623636  0.96383836     0.12200
H852        H  0.28089684  0.67365974  0.97344281     0.12200
H853        H  0.18984321  0.62432224  0.03340566     0.12200
C854        C  0.11986971  0.92290157  0.49783137    -0.14000
C855        C  0.14689983  0.92126509  0.50422060     0.08200
C856        C  0.14459992  0.89333004  0.51449734    -0.14000
C857        C  0.11570077  0.86701243  0.51718627    -0.14000
C858        C  0.08856010  0.86826832  0.51038920     0.08200
C859        C  0.09080306  0.89654094  0.50138345    -0.14000
H860        H  0.12119436  0.94430217  0.48945813     0.12200
H861        H  0.16518329  0.89155499  0.51909578     0.12200
H862        H  0.11457962  0.84556188  0.52406252     0.12200
H863        H  0.07018259  0.89804373  0.49551033     0.12200
C864        C  0.37711894  0.60772010  0.95401650    -0.14000
C865        C  0.36826586  0.58218691  0.98142769     0.08200
C866        C  0.38964154  0.58340488  0.01288200    -0.14000
C867        C  0.41802760  0.61064781  0.01943399    -0.14000
C868        C  0.42537204  0.63698078  0.99456379     0.08200
C869        C  0.40525118  0.63465034  0.96037983    -0.14000
H870        H  0.36126476  0.60751698  0.92935855     0.12200
H871        H  0.38331824  0.56421450  0.03486064     0.12200
H872        H  0.43291184  0.61180670  0.04624093     0.12200
H873        H  0.41032091  0.65439483  0.94038812     0.12200
C874        C  0.30017595  0.51346104  0.14934847    -0.17100
C875        C  0.29039595  0.49494576  0.11450797    -0.32200
H876        H  0.30128809  0.53549288  0.14677967     0.12000
H877        H  0.28627516  0.47177220  0.11667046     0.12500
C878        C  0.29005957  0.49426900  0.31373461    -0.17100
C879        C  0.28850236  0.98548145  0.34097678    -0.32200
H880        H  0.26535312  0.47793581  0.31490848     0.12000
H881        H  0.27016149  0.96797098  0.32118671     0.12500
C882        C  0.29630648  0.80853391  0.16745693    -0.17100
C883        C  0.31424330  0.81641073  0.13112563    -0.32200
H884        H  0.27251397  0.78997350  0.16540861     0.12000
H885        H  0.33787230  0.83514221  0.13099621     0.12500
C886        C  0.28447046  0.80074061  0.33107327    -0.17100
C887        C  0.29662324  0.80522212  0.37155140    -0.32200
H888        H  0.25961770  0.78593935  0.32650510     0.12000
H889        H  0.32160438  0.81879306  0.37601665     0.12500
C890        C  0.35283801  0.91238115  0.20727585    -0.14000
C891        C  0.34723964  0.89981785  0.25001167     0.08200
C892        C  0.35021325  0.91852088  0.28612810    -0.14000
C893        C  0.35407988  0.94743054  0.27923511    -0.14000
C894        C  0.35575912  0.95837980  0.23616278     0.08200
C895        C  0.35753081  0.94160112  0.20046926    -0.14000
H896        H  0.35116746  0.89895899  0.17855895     0.12200
H897        H  0.34762128  0.91019801  0.31975501     0.12200
H898        H  0.35294075  0.95986531  0.30743790     0.12200
H899        H  0.35984315  0.94997015  0.16692283     0.12200
C900        C  0.50286570  0.81000021  0.16732953    -0.17100
C901        C  0.49542360  0.78119361  0.15935047    -0.32200
H902        H  0.50805131  0.82575760  0.13991899     0.12000
H903        H  0.97258588  0.75942427  0.17768314     0.12500
C904        C  0.01469070  0.80738564  0.33409623    -0.17100
C905        C  0.01117367  0.81639952  0.37457005    -0.32200
H906        H  0.52120995  0.79662966  0.32939488     0.12000
H907        H  0.00226041  0.83182876  0.37776434     0.12500
C908        C  0.43248337  0.84792290  0.28848987    -0.14000
C909        C  0.44301388  0.83964480  0.25089937     0.08200
C910        C  0.42531418  0.83162641  0.21208457    -0.14000
C911        C  0.39628407  0.82981825  0.21213274    -0.14000
C912        C  0.38495749  0.83583233  0.25103394     0.08200
C913        C  0.40368257  0.84587562  0.28863127    -0.14000
H914        H  0.44613390  0.85500486  0.31842410     0.12200
H915        H  0.43312111  0.82525105  0.18277808     0.12200
H916        H  0.38208331  0.82229178  0.18270065     0.12200
H917        H  0.39562773  0.85138858  0.31853174     0.12200
C918        C  0.19135258  0.49730083  0.14473282    -0.17100
C919        C  0.22078654  0.51162389  0.12963250    -0.32200
H920        H  0.17236402  0.48786259  0.12127498     0.12000
H921        H  0.17592035  0.99248102  0.13255885     0.12500
C922        C  0.20568471  0.49428645  0.31193962    -0.17100
C923        C  0.22077212  0.51466013  0.34434463    -0.32200
H924        H  0.20112411  0.47112389  0.31633684     0.12000
H925        H  0.22525801  0.02896519  0.34437745     0.12500
C926        C  0.10496173  0.92307738  0.19671818    -0.14000
C927        C  0.10927302  0.94952863  0.21751201     0.08200
C928        C  0.08400067  0.94925787  0.23859110    -0.14000
C929        C  0.05603694  0.92186056  0.24404254    -0.14000
C930        C  0.05300846  0.89480384  0.22751866     0.08200
C931        C  0.07682863  0.89580343  0.20148856    -0.14000
H932        H  0.12446649  0.92272205  0.18126855     0.12200
H933        H  0.08719312  0.96927317  0.25577047     0.12200
H934        H  0.03788532  0.92130152  0.26459508     0.12200
H935        H  0.07483354  0.87497275  0.18892119     0.12200
C936        C  0.21843386  0.70751018  0.16546270    -0.17100
C937        C  0.19067795  0.69952529  0.18343494    -0.32200
H938        H  0.23616455  0.70693188  0.18576170     0.12000
H939        H  0.17195491  0.69726282  0.16240030     0.12500
C940        C  0.20437199  0.70351177  0.35097058    -0.17100
C941        C  0.19246830  0.69235753  0.39147960    -0.32200
H942        H  0.22496026  0.72584665  0.34757055     0.12000
H943        H  0.17113040  0.67056253  0.39436298     0.12500
C944        C  0.14292957  0.58682672  0.23945208    -0.14000
C945        C  0.16999810  0.61431314  0.24930796     0.08200
C946        C  0.19885700  0.61594448  0.24592193    -0.14000
C947        C  0.20055781  0.58998466  0.23675790    -0.14000
C948        C  0.17340107  0.56172872  0.23128267     0.08200
C949        C  0.14463405  0.56053008  0.23065055    -0.14000
H950        H  0.12055160  0.58526257  0.24151327     0.12200
H951        H  0.22008993  0.63711783  0.25232061     0.12200
H952        H  0.22303612  0.59153991  0.23690820     0.12200
H953        H  0.12337154  0.53889062  0.22681086     0.12200
C954        C  0.50794466  0.70291679  0.19228596    -0.17100
C955        C  0.48735738  0.68786698  0.16000792    -0.32200
H956        H  0.52573078  0.72654990  0.18697827     0.12000
H957        H  0.95629204  0.67510168  0.17090334     0.12500
C958        C  0.99735576  0.71093402  0.35161696    -0.17100
C959        C  0.99654577  0.69976540  0.39242459    -0.32200
H960        H  0.99904447  0.73295270  0.34734510     0.12000
H961        H  0.99595783  0.67819416  0.39601108     0.12500
C962        C  0.05844158  0.65214302  0.30993795    -0.14000
C963        C  0.05021138  0.66295328  0.27262778     0.08200
C964        C  0.06741140  0.66861335  0.23334370    -0.14000
C965        C  0.09428913  0.66623968  0.23276588    -0.14000
C966        C  0.10393703  0.65801683  0.27142439     0.08200
C967        C  0.08488450  0.64947056  0.30924501    -0.14000
H968        H  0.04517404  0.64713228  0.34037357     0.12200
H969        H  0.06137766  0.67698975  0.20420008     0.12200
H970        H  0.10874674  0.67314857  0.20338880     0.12200
H971        H  0.09162017  0.64266323  0.33929009     0.12200
C972        C  0.44302481  0.58804434  0.24513664    -0.14000
C973        C  0.44294290  0.61202531  0.26787667     0.08200
C974        C  0.41475995  0.60827744  0.28417578    -0.14000
C975        C  0.38711055  0.58121916  0.27699245    -0.14000
C976        C  0.38720808  0.55762949  0.25361355     0.08200
C977        C  0.41521394  0.56093375  0.23791303    -0.14000
H978        H  0.46453248  0.59026586  0.23284246     0.12200
H979        H  0.41398341  0.62641338  0.30111402     0.12200
H980        H  0.36535282  0.57914803  0.28815900     0.12200
H981        H  0.41535122  0.54301648  0.21896474     0.12200
C982        C  0.49410695  0.69390564  0.80935853     0.85900
C983        C  0.03002374  0.68970969  0.80301852    -0.54400
C984        C  0.03426226  0.67620013  0.76689941     0.08800
C985        C  0.00596350  0.66150239  0.73625711     0.19700
C986        C  0.48588264  0.70668644  0.76882762    -0.55100
C987        C  0.99927560  0.68728152  0.72500226     0.08900
C988        C  0.47278904  0.65952332  0.80630958    -0.54600
C989        C  0.47528532  0.64734744  0.76743879     0.09500
H990        H  0.04760392  0.70087598  0.82824215     0.14000
H991        H  0.00948866  0.65067719  0.70672833    -0.00300
H992        H  0.47816286  0.72325082  0.77086078     0.14300
H993        H  0.45594144  0.64646428  0.83194402     0.14100
C994        C  0.19401846  0.68373836  0.80974773     0.85900
C995        C  0.18351527  0.64995812  0.80366310    -0.54400
C996        C  0.16742702  0.63780113  0.76541347     0.08800
C997        C  0.16284616  0.66048089  0.73710507     0.19700
C998        C  0.21233714  0.69954371  0.76696472    -0.55100
C999        C  0.19586561  0.68714746  0.72899032     0.08900
C1000       C  0.16438984  0.68549511  0.80615275    -0.54600
C1001       C  0.14798479  0.67351776  0.76835486     0.09500
H1002       H  0.18927387  0.63710203  0.82675031     0.14000
H1003       H  0.14957060  0.65066943  0.70625056    -0.00300
H1004       H  0.23537969  0.71950997  0.76681876     0.14300
H1005       H  0.15708532  0.69568712  0.83152707     0.14100
C1006       C  0.18909018  0.50243352  0.77678848     0.85900
C1007       C  0.16963519  0.97437161  0.77200464    -0.54400
C1008       C  0.15399708  0.97603560  0.73622891     0.08800
C1009       C  0.16059319  0.50314830  0.70466556     0.19700
C1010       C  0.20864492  0.50835688  0.73475971    -0.55100
C1011       C  0.19398658  0.50887997  0.69669470     0.08900
C1012       C  0.18023622  0.52707107  0.77595658    -0.54600
C1013       C  0.16482361  0.52737857  0.73913911     0.09500
H1014       H  0.16217625  0.95328683  0.79039315     0.14000
H1015       H  0.14829106  0.50357019  0.67437685    -0.00300
H1016       H  0.23214208  0.51231793  0.73510175     0.14300
H1017       H  0.18592953  0.54335297  0.80252901     0.14100
C1018       C  0.01188731  0.82200086  0.79738657     0.85900
C1019       C  0.47991015  0.82581321  0.80230921    -0.54400
C1020       C  0.47468881  0.83579364  0.76288752     0.08800
C1021       C  0.49713542  0.83853496  0.72565905     0.19700
C1022       C  0.01271822  0.80841222  0.75236892    -0.55100
C1023       C  0.49370167  0.80672751  0.72353126     0.08900
C1024       C  0.03852238  0.85508588  0.79488097    -0.54600
C1025       C  0.03718531  0.87090756  0.75903532     0.09500
H1026       H  0.46493500  0.82136762  0.83068874     0.14000
H1027       H  0.49331662  0.84684912  0.69357947    -0.00300
H1028       H  0.01491004  0.78833804  0.74867307     0.14300
H1029       H  0.05829729  0.86413967  0.81674789     0.14100
C1030       C  0.30941287  0.81979457  0.78707359     0.85900
C1031       C  0.32152580  0.85391173  0.79112722    -0.54400
C1032       C  0.34177221  0.87121925  0.75830215     0.08800
C1033       C  0.34814381  0.85221203  0.72453092     0.19700
C1034       C  0.29540503  0.81164739  0.74125521    -0.55100
C1035       C  0.31573013  0.82819925  0.70811039     0.08900
C1036       C  0.33841858  0.81667851  0.78497949    -0.54600
C1037       C  0.35898690  0.83409561  0.75283037     0.09500
H1038       H  0.31306500  0.86304806  0.81642043     0.14000
H1039       H  0.36482789  0.86559900  0.69777608    -0.00300
H1040       H  0.27145803  0.79415804  0.73579637     0.14300
H1041       H  0.34308387  0.80312427  0.80827013     0.14100
C1042       C  0.31612613  0.50805150  0.69845494     0.85900
C1043       C  0.32729508  0.98144337  0.69713043    -0.54400
C1044       C  0.34550118  0.98358976  0.73203410     0.08800
C1045       C  0.35005463  0.50702512  0.76284030     0.19700
C1046       C  0.30404796  0.51009763  0.74438246    -0.55100
C1047       C  0.32197069  0.50940157  0.77832778     0.08900
C1048       C  0.34966519  0.53423453  0.69694998    -0.54600
C1049       C  0.36773913  0.53399052  0.73057985     0.09500
H1050       H  0.31948960  0.96362639  0.67255290     0.14000
H1051       H  0.36406566  0.50586318  0.79028520    -0.00300
H1052       H  0.28337358  0.51171233  0.74950653     0.14300
H1053       H  0.35755744  0.55222312  0.67223049     0.14100
O1054       O  0.20236038  0.96198598  0.92010282    -0.80800
O1055       O  0.31409574  0.56186766  0.48530344    -0.80800
O1056       O  0.20618176  0.54028207  0.47780988    -0.80800
O1057       O  0.29553121  0.50805164  0.91779720    -0.80700
O1058       O  0.25767506  0.56601274  0.48248953    -0.80900
O1059       O  0.25380683  0.95824534  0.91018557    -0.80800
O1060       O  0.32601142  0.53024577  0.99345049    -0.80800
O1061       O  0.20986290  0.51686832  0.93142785    -0.80800
C1062       C  0.20747927  0.98770961  0.90592838     1.08900
C1063       C  0.33961311  0.56108228  0.48925540     1.08800
C1064       C  0.23151241  0.56563380  0.47884813     1.08900
C1065       C  0.27397531  0.98221873  0.88969927     1.08800
O1066       O  0.24834419  0.94082532  0.00566979    -0.80800
O1067       O  0.24203896  0.53506469  0.56948438    -0.80800
O1068       O  0.18008038  0.97087531  0.47810247    -0.80800
O1069       O  0.29196290  0.49324005  0.54520032    -0.80800
O1070       O  0.29285439  0.53280340  0.57220035    -0.80800
O1071       O  0.19620724  0.94120927  0.01328088    -0.80800
O1072       O  0.29279724  0.96575219  0.97253432    -0.80700
O1073       O  0.20243077  0.49834411  0.53838652    -0.80800
Co1074     Co  0.22699784  0.95337302  0.96453626     1.51500
Co1075     Co  0.27383684  0.54344353  0.52248579     1.51700
Co1076     Co  0.22225897  0.51329099  0.47981296     1.51600
Co1077     Co  0.28226516  0.49569646  0.97982110     1.51500
O1078       O  0.25548526  0.51320043  0.97814576    -1.42700
C1079       C  0.27247813  0.94178523  0.99232832     1.08800
C1080       C  0.21456634  0.51351734  0.57224007     1.08900
C1081       C  0.17111518  0.94051142  0.00504419     1.08900
C1082       C  0.29543803  0.50969453  0.57738806     1.08800
O1083       O  0.99347796  0.72873576  0.92943406    -0.80800
O1084       O  0.44836994  0.75573533  0.50197048    -0.80800
O1085       O  0.47617777  0.68539468  0.51990302    -0.80800
O1086       O  0.99959989  0.79122546  0.95279504    -0.80700
O1087       O  0.44456843  0.70208088  0.50346510    -0.80900
O1088       O  0.03550912  0.78819756  0.91349086    -0.80800
O1089       O  0.46955813  0.78549083  0.03980914    -0.80800
O1090       O  0.51637903  0.70635527  0.96428758    -0.80800
C1091       C  0.00008031  0.70770072  0.92850750     1.08900
C1092       C  0.44904698  0.77962552  0.51366914     1.08800
C1093       C  0.44980696  0.68035300  0.50663259     1.08900
C1094       C  0.01537012  0.79625110  0.91645588     1.08800
O1095       O  0.05346067  0.80422414  0.99841661    -0.80800
O1096       O  0.46975923  0.71265111  0.59304109    -0.80800
O1097       O  0.05275131  0.75288425  0.53572636    -0.80800
O1098       O  0.01604837  0.79577631  0.58301959    -0.80800
O1099       O  0.47457528  0.76808009  0.59280974    -0.80800
O1100       O  0.05530500  0.75656752  0.96046068    -0.80800
O1101       O  0.02884107  0.82766268  0.02210939    -0.80700
O1102       O  0.51937714  0.72821916  0.58264525    -0.80800
Co1103     Co  0.02012755  0.76450301  0.96541302     1.51500
Co1104     Co  0.46109749  0.73573040  0.54553280     1.51700
Co1105     Co  0.51782033  0.72514498  0.51853061     1.51600
Co1106     Co  0.01026808  0.79676054  0.51870784     1.51500
O1107       O  0.50256319  0.75553814  0.51536118    -1.42700
C1108       C  0.05399895  0.82885275  0.01136009     1.08800
C1109       C  0.49565269  0.71667208  0.60697420     1.08900
C1110       C  0.06842407  0.75416752  0.99453148     1.08900
C1111       C  0.50153628  0.78957126  0.60354689     1.08800
O1112       O  0.19669696  0.75335938  0.95783401    -0.80800
O1113       O  0.28353210  0.76083317  0.59288676    -0.80800
O1114       O  0.20928119  0.71357533  0.59310764    -0.80800
O1115       O  0.29276889  0.82412118  0.98945907    -0.80700
O1116       O  0.24801305  0.70420767  0.58592155    -0.80900
O1117       O  0.24318382  0.80248713  0.98766089    -0.80800
O1118       O  0.27833527  0.79910651  0.57278593    -0.80800
O1119       O  0.18452933  0.74011102  0.53630058    -0.80800
C1120       C  0.18106936  0.75122726  0.99223502     1.08900
C1121       C  0.28277955  0.78443260  0.60233746     1.08800
C1122       C  0.22689885  0.70465878  0.60955315     1.08900
C1123       C  0.26888180  0.82628441  0.99076422     1.08800
O1124       O  0.25059524  0.78479468  0.90531161    -0.80800
O1125       O  0.25881957  0.70553949  0.49081643    -0.80800
O1126       O  0.19190835  0.70153265  0.96682294    -0.80800
O1127       O  0.31284441  0.75753914  0.00041472    -0.80800
O1128       O  0.30901775  0.73660074  0.54472426    -0.80800
O1129       O  0.23664053  0.72859291  0.93416879    -0.80800
O1130       O  0.28810168  0.77749068  0.93121419    -0.80700
O1131       O  0.21180062  0.67892385  0.51963863    -0.80800
Co1132     Co  0.24182000  0.76614613  0.96212029     1.51500
Co1133     Co  0.27174773  0.73588750  0.53851193     1.51700
Co1134     Co  0.20006170  0.71130553  0.52897643     1.51600
Co1135     Co  0.28064146  0.78916696  0.51050511     1.51500
O1136       O  0.24280533  0.74743408  0.52131662    -1.42700
C1137       C  0.27765223  0.78833855  0.90168219     1.08800
C1138       C  0.23430407  0.68012114  0.49761292     1.08900
C1139       C  0.20950726  0.70630465  0.93362199     1.08900
C1140       C  0.32800229  0.76369243  0.53135064     1.08800
C1141       C  0.11386734  0.75923274  0.95198451    -0.14000
C1142       C  0.10013800  0.75943131  0.99256562     0.08200
C1143       C  0.11152471  0.75893974  0.54167788    -0.14000
C1144       C  0.13838333  0.75684127  0.54228392    -0.14000
C1145       C  0.15529260  0.75742092  0.99118040     0.08200
C1146       C  0.14139068  0.75821211  0.95129805    -0.14000
H1147       H  0.10245185  0.75804523  0.92107721     0.09500
H1148       H  0.09952363  0.75656677  0.57263192     0.12200
H1149       H  0.14640494  0.75301600  0.57363472     0.12200
H1150       H  0.15080571  0.75638696  0.91988431     0.12200
C1151       C  0.41553665  0.80155457  0.53652313    -0.14000
C1152       C  0.41983668  0.78019386  0.51276738     0.08200
C1153       C  0.39562035  0.75356785  0.98702129    -0.14000
C1154       C  0.36557688  0.74860069  0.99059454    -0.14000
C1155       C  0.36005984  0.77144742  0.52358824     0.08200
C1156       C  0.38557415  0.79732479  0.54153152    -0.14000
H1157       H  0.43486254  0.82045154  0.55273625     0.12200
H1158       H  0.40245432  0.74660076  0.95727015     0.12200
H1159       H  0.34977071  0.73854118  0.96316765     0.12200
H1160       H  0.38214161  0.81322728  0.56108374     0.12200
C1161       C  0.29829772  0.91078252  0.97647041    -0.14000
C1162       C  0.27410229  0.91337846  0.99583971     0.08200
C1163       C  0.24896933  0.88719079  0.01517483    -0.14000
C1164       C  0.24740222  0.85900274  0.01379257    -0.14000
C1165       C  0.27130856  0.85636914  0.99398738     0.08200
C1166       C  0.29702752  0.88252323  0.97594420    -0.14000
H1167       H  0.31767481  0.93028595  0.96082908     0.12200
H1168       H  0.22971678  0.88817720  0.03034891     0.12200
H1169       H  0.22747286  0.83926350  0.02796932     0.12200
H1170       H  0.31564039  0.88089033  0.96006736     0.12200
C1171       C  0.20389468  0.59564911  0.48127796    -0.14000
C1172       C  0.23150364  0.59491199  0.47529406     0.08200
C1173       C  0.25955457  0.62274370  0.47112881    -0.14000
C1174       C  0.26026042  0.65058258  0.47537821    -0.14000
C1175       C  0.23290801  0.65123495  0.48446712     0.08200
C1176       C  0.20463967  0.62347015  0.48604979    -0.14000
H1177       H  0.18192794  0.57472801  0.48467172     0.12200
H1178       H  0.28133040  0.62304988  0.46638851     0.12200
H1179       H  0.28238507  0.67144999  0.47405808     0.12200
H1180       H  0.18307875  0.62316596  0.49279536     0.12200
C1181       C  0.11331468  0.91339677  0.00902766    -0.14000
C1182       C  0.14114146  0.91278353  0.01136500     0.08200
C1183       C  0.14012536  0.88483720  0.01556391    -0.14000
C1184       C  0.11176702  0.85770900  0.01640803    -0.14000
C1185       C  0.08381037  0.85796475  0.01384170     0.08200
C1186       C  0.08480026  0.88615307  0.01087360    -0.14000
H1187       H  0.11359682  0.93479169  0.00521442     0.12200
H1188       H  0.16124498  0.88380406  0.01668158     0.12200
H1189       H  0.11172779  0.83636409  0.01862587     0.12200
H1190       H  0.06359492  0.88703145  0.00843474     0.12200
C1191       C  0.36949949  0.61716033  0.47574557    -0.14000
C1192       C  0.36962707  0.59054929  0.48834585     0.08200
C1193       C  0.39761096  0.59336725  0.50377514    -0.14000
C1194       C  0.42439256  0.62237396  0.50823007    -0.14000
C1195       C  0.42363353  0.64901273  0.49717187     0.08200
C1196       C  0.39594501  0.64576002  0.47995526    -0.14000
H1197       H  0.34855970  0.61605605  0.46361377     0.12200
H1198       H  0.39843739  0.57332283  0.51410964     0.12200
H1199       H  0.44524900  0.62400541  0.52178748     0.12200
H1200       H  0.39427342  0.66554427  0.47082588     0.12200
C1201       C  0.29842917  0.50929316  0.65898735    -0.17100
C1202       C  0.30614037  0.50371945  0.61891237    -0.32200
H1203       H  0.28128564  0.51627699  0.66260931     0.12000
H1204       H  0.32242267  0.49557798  0.61607690     0.12500
C1205       C  0.31502344  0.50958772  0.82596737    -0.17100
C1206       C  0.28085215  0.98135320  0.84181004    -0.32200
H1207       H  0.33428139  0.51987270  0.84903104     0.12000
H1208       H  0.26317073  0.96418496  0.82091418     0.12500
C1209       C  0.30781145  0.82193111  0.66092395    -0.17100
C1210       C  0.28709336  0.79366375  0.64824139    -0.32200
H1211       H  0.32127358  0.83947196  0.63642067     0.12000
H1212       H  0.27653251  0.77521329  0.67232854     0.12500
C1213       C  0.28711055  0.80154833  0.82326357    -0.17100
C1214       C  0.29759476  0.80426175  0.86434236    -0.32200
H1215       H  0.26272769  0.78622203  0.81610061     0.12000
H1216       H  0.32224808  0.81833954  0.87092992     0.12500
C1217       C  0.35629867  0.91664623  0.71020091    -0.14000
C1218       C  0.35194747  0.90399534  0.75275120     0.08200
C1219       C  0.35276894  0.92151939  0.78924195    -0.14000
C1220       C  0.35353587  0.94915194  0.78283489    -0.14000
C1221       C  0.35417346  0.95997941  0.73991961     0.08200
C1222       C  0.35780196  0.94456659  0.70393708    -0.14000
H1223       H  0.35596683  0.90407084  0.68132049     0.12200
H1224       H  0.35069175  0.91297242  0.82264093     0.12200
H1225       H  0.35099300  0.96058961  0.81135644     0.12200
H1226       H  0.35945343  0.95294900  0.67041544     0.12200
C1227       C  0.48841343  0.78996310  0.68199755    -0.17100
C1228       C  0.50672021  0.80382949  0.64706211    -0.32200
H1229       H  0.47026197  0.76612009  0.68055618     0.12000
H1230       H  0.97874427  0.77131336  0.67808447     0.12500
C1231       C  0.01433436  0.80484317  0.83660736    -0.17100
C1232       C  0.00967239  0.81080590  0.87830995    -0.32200
H1233       H  0.53270692  0.80226875  0.83947429     0.12000
H1234       H  0.00170921  0.82695536  0.88454928     0.12500
C1235       C  0.43767411  0.85136834  0.79114356    -0.14000
C1236       C  0.44750281  0.83984281  0.75652774     0.08200
C1237       C  0.42934969  0.82925570  0.71815123    -0.14000
C1238       C  0.40095369  0.82866131  0.71559918    -0.14000
C1239       C  0.39053375  0.83854020  0.75151431     0.08200
C1240       C  0.40938000  0.85053679  0.78876088    -0.14000
H1241       H  0.45143299  0.86013122  0.82078879     0.12200
H1242       H  0.43625577  0.81990948  0.69114322     0.12200
H1243       H  0.38652894  0.81919139  0.68679598     0.12200
H1244       H  0.40170823  0.85844506  0.81657000     0.12200
C1245       C  0.21071907  0.51640732  0.65344250    -0.17100
C1246       C  0.19657582  0.50635502  0.61424876    -0.32200
H1247       H  0.23577356  0.52934205  0.65429265     0.12000
H1248       H  0.18288959  0.99496284  0.63137851     0.12500
C1249       C  0.20390100  0.50151181  0.81983839    -0.17100
C1250       C  0.19124203  0.50259163  0.85876489    -0.32200
H1251       H  0.22452126  0.49933522  0.81925817     0.12000
H1252       H  0.16896806  0.97835887  0.86295800     0.12500
C1253       C  0.11969411  0.92099685  0.72290759    -0.14000
C1254       C  0.12306806  0.95003436  0.72651665     0.08200
C1255       C  0.09668423  0.95274154  0.73357221    -0.14000
C1256       C  0.06777733  0.92669260  0.74153505    -0.14000
C1257       C  0.06533664  0.89796962  0.74243838     0.08200
C1258       C  0.09100354  0.89514199  0.73085233    -0.14000
H1259       H  0.13979483  0.91848688  0.71784394     0.12200
H1260       H  0.09896594  0.97503829  0.73721571     0.12200
H1261       H  0.04804792  0.92907867  0.75005579     0.12200
H1262       H  0.08922854  0.87295836  0.73072902     0.12200
C1263       C  0.22252863  0.69455997  0.65654373    -0.17100
C1264       C  0.20573402  0.70118821  0.68457054    -0.32200
H1265       H  0.23246199  0.68099254  0.66799432     0.12000
H1266       H  0.19564839  0.71458473  0.67302542     0.12500
C1267       C  0.21105308  0.69761724  0.85275603    -0.17100
C1268       C  0.19687184  0.68813304  0.89272206    -0.32200
H1269       H  0.23405263  0.71751985  0.85073491     0.12000
H1270       H  0.17355736  0.66869191  0.89430062     0.12500
C1271       C  0.14218604  0.58219813  0.78075054    -0.14000
C1272       C  0.15842107  0.60658699  0.75130718     0.08200
C1273       C  0.16993545  0.60172191  0.71154075    -0.14000
C1274       C  0.16842488  0.57372667  0.70391759    -0.14000
C1275       C  0.15498448  0.55039175  0.73578842     0.08200
C1276       C  0.14004371  0.55420268  0.77266397    -0.14000
H1277       H  0.13301448  0.58544052  0.81135578     0.12200
H1278       H  0.18263405  0.62040172  0.68844513     0.12200
H1279       H  0.18048420  0.57146227  0.67567069     0.12200
H1280       H  0.12963904  0.53649404  0.79781983     0.12200
C1281       C  0.48222025  0.70435175  0.68646976    -0.17100
C1282       C  0.49899356  0.70607424  0.65084515    -0.32200
H1283       H  0.46521258  0.71169069  0.68451549     0.12000
H1284       H  0.95920560  0.70040210  0.68169235     0.12500
C1285       C  0.99439925  0.70165617  0.84709158    -0.17100
C1286       C  0.99694574  0.69125463  0.88714984    -0.32200
H1287       H  0.99158923  0.72142608  0.84435049     0.12000
H1288       H  0.00042605  0.67185254  0.88900986     0.12500
C1289       C  0.06417717  0.65022147  0.74514326    -0.14000
C1290       C  0.06378493  0.67641823  0.75909981     0.08200
C1291       C  0.09191614  0.70261870  0.76945071    -0.14000
C1292       C  0.11948801  0.70199456  0.76932993    -0.14000
C1293       C  0.11968392  0.67517619  0.75905355     0.08200
C1294       C  0.09206479  0.64958321  0.74510878    -0.14000
H1295       H  0.04271987  0.62972585  0.73685729     0.12200
H1296       H  0.09243639  0.72331594  0.77910118     0.12200
H1297       H  0.14066439  0.72231204  0.77914351     0.12200
H1298       H  0.09172108  0.62871416  0.73696732     0.12200
C1299       C  0.44282927  0.60777322  0.71230051    -0.14000
C1300       C  0.45324775  0.61539773  0.75580945     0.08200
C1301       C  0.43900623  0.59332674  0.78933577    -0.14000
C1302       C  0.41219813  0.56590154  0.78058543    -0.14000
C1303       C  0.39974291  0.55951936  0.73785295     0.08200
C1304       C  0.41661772  0.57987239  0.70313653    -0.14000
H1305       H  0.45346173  0.62427849  0.68521722     0.12200
H1306       H  0.44723652  0.59804965  0.82288056     0.12200
H1307       H  0.40031796  0.55099786  0.80841965     0.12200
H1308       H  0.40878892  0.57522363  0.66965238     0.12200
C1309       C  0.99176824  0.19281108  0.31539697     0.85900
C1310       C  0.54047229  0.20036384  0.28445270    -0.54400
C1311       C  0.53573109  0.18457038  0.24640385     0.08800
C1312       C  0.50378966  0.17405107  0.22552965     0.19700
C1313       C  0.98542799  0.20706352  0.27508754    -0.55100
C1314       C  0.50086664  0.20299618  0.22152265     0.08900
C1315       C  0.96899507  0.15862614  0.31131328    -0.54600
C1316       C  0.97107208  0.14659549  0.27190677     0.09500
H1317       H  0.56121475  0.20784935  0.30424575     0.14000
H1318       H  0.50069466  0.16164676  0.19425165    -0.00300
H1319       H  0.97886089  0.22448117  0.27746711     0.14300
H1320       H  0.95161033  0.14559364  0.33652534     0.14100
C1321       C  0.68376121  0.18780601  0.30412313     0.85900
C1322       C  0.68236222  0.15716055  0.29963444    -0.54400
C1323       C  0.66909215  0.14219506  0.26132687     0.08800
C1324       C  0.65827967  0.15936823  0.23078074     0.19700
C1325       C  0.70072253  0.20575378  0.26194973    -0.55100
C1326       C  0.68752025  0.19064353  0.22369760     0.08900
C1327       C  0.65026637  0.18077417  0.29814332    -0.54600
C1328       C  0.63699119  0.16623099  0.25951248     0.09500
H1329       H  0.69168887  0.14832516  0.32426807     0.14000
H1330       H  0.64745776  0.14735329  0.19954268    -0.00300
H1331       H  0.72130654  0.22821850  0.26228080     0.14300
H1332       H  0.63882040  0.18848173  0.32093792     0.14100
C1333       C  0.68019448  0.99420758  0.28468587     0.85900
C1334       C  0.65261806  0.48044046  0.26300713    -0.54400
C1335       C  0.63766731  0.48354164  0.22742632     0.08800
C1336       C  0.66162646  0.00641432  0.21072681     0.19700
C1337       C  0.70290853  0.00137752  0.24627530    -0.55100
C1338       C  0.69324778  0.00761682  0.20750296     0.08900
C1339       C  0.67557492  0.02183232  0.28719695    -0.54600
C1340       C  0.66637506  0.02860074  0.24838774     0.09500
H1341       H  0.64052582  0.46315379  0.28854998     0.14000
H1342       H  0.65366951  0.01171736  0.17941916    -0.00300
H1343       H  0.72476165  0.00162573  0.24948521     0.14300
H1344       H  0.68072681  0.03586809  0.31648745     0.14100
C1345       C  0.50844754  0.32756269  0.28197396     0.85900
C1346       C  0.96253598  0.32656117  0.28542838    -0.54400
C1347       C  0.96316333  0.34006314  0.24610599     0.08800
C1348       C  0.99419916  0.35287504  0.22058869     0.19700
C1349       C  0.50876868  0.31212715  0.23923673    -0.55100
C1350       C  0.99901878  0.32510669  0.21614951     0.08900
C1351       C  0.53211022  0.36128293  0.27469906    -0.54600
C1352       C  0.52670062  0.37375322  0.23803157     0.09500
H1353       H  0.94224624  0.31634345  0.30707210     0.14000
H1354       H  0.99468749  0.36442880  0.18919622    -0.00300
H1355       H  0.51308949  0.29310002  0.23826464     0.14300
H1356       H  0.55176958  0.37410365  0.29631669     0.14100
C1357       C  0.79870625  0.31695932  0.28453646     0.85900
C1358       C  0.80617253  0.35001591  0.28324775    -0.54400
C1359       C  0.82363367  0.36662373  0.24785746     0.08800
C1360       C  0.83138252  0.34770378  0.21575312     0.19700
C1361       C  0.78274909  0.30351240  0.24032199    -0.55100
C1362       C  0.79995108  0.31946353  0.20416616     0.08900
C1363       C  0.83014586  0.31846738  0.28072016    -0.54600
C1364       C  0.84727434  0.33459812  0.24466052     0.09500
H1365       H  0.79740072  0.35904912  0.30831134     0.14000
H1366       H  0.84547071  0.36031216  0.18638423    -0.00300
H1367       H  0.76026065  0.28294987  0.23774727     0.14300
H1368       H  0.83802423  0.30751712  0.30409055     0.14100
C1369       C  0.81710678  0.99906472  0.18970164     0.85900
C1370       C  0.81704389  0.48425892  0.18337801    -0.54400
C1371       C  0.83069176  0.48206023  0.22127520     0.08800
C1372       C  0.85207331  0.00080843  0.25472009     0.19700
C1373       C  0.80284682  0.99734674  0.23567875    -0.55100
C1374       C  0.82144250  0.99854787  0.27001108     0.08900
C1375       C  0.84885438  0.02829889  0.19093098    -0.54600
C1376       C  0.86744854  0.02962694  0.22515454     0.09500
H1377       H  0.81118802  0.46824009  0.15687958     0.14000
H1378       H  0.86665266  0.00095038  0.28233115    -0.00300
H1379       H  0.78098315  0.99675209  0.24039990     0.14300
H1380       H  0.85485957  0.04686401  0.16787201     0.14100
O1381       O  0.70836771  0.47965733  0.39217136    -0.80800
O1382       O  0.80086593  0.05665751  0.03639001    -0.80800
O1383       O  0.70104551  0.02981205  0.99034298    -0.80800
O1384       O  0.79739041  0.01658769  0.40347526    -0.80700
O1385       O  0.75027622  0.05569425  0.00084819    -0.80900
O1386       O  0.76087290  0.47649351  0.39543756    -0.80800
O1387       O  0.81407494  0.05992272  0.46796299    -0.80800
O1388       O  0.73343227  0.02450667  0.42084739    -0.80800
C1389       C  0.71976656  0.50738430  0.38148936     1.08900
C1390       C  0.81860136  0.06810527  0.00310428     1.08800
C1391       C  0.72447392  0.05505760  0.99444471     1.08900
C1392       C  0.78228416  0.50339711  0.38631079     1.08800
O1393       O  0.73885916  0.44251825  0.47866327    -0.80800
O1394       O  0.74726278  0.03619476  0.08613362    -0.80800
O1395       O  0.66616998  0.47982860  0.98962458    -0.80800
O1396       O  0.81062451  0.01045432  0.03312173    -0.80800
O1397       O  0.76638887  0.99596230  0.06873701    -0.80800
O1398       O  0.68733836  0.44588920  0.47484245    -0.80800
O1399       O  0.78826791  0.47202114  0.46501612    -0.80700
O1400       O  0.70728881  0.99727326  0.05317839    -0.80800
Co1401     Co  0.72507439  0.46355637  0.43867601     1.51500
Co1402     Co  0.75667338  0.02281570  0.03296570     1.51700
Co1403     Co  0.71529540  0.00122899  0.98554356     1.51600
Co1404     Co  0.80399661  0.01703000  0.46807019     1.51500
O1405       O  0.75859764  0.00370501  0.48011411    -1.42700
C1406       C  0.76552882  0.44584746  0.47552743     1.08800
C1407       C  0.71943568  0.01426296  0.08732623     1.08900
C1408       C  0.66695969  0.45342134  0.47070800     1.08900
C1409       C  0.79395653  0.00088327  0.06808122     1.08800
O1410       O  0.53201865  0.25756882  0.42064219    -0.80800
O1411       O  0.93945158  0.25502191  0.06282618    -0.80800
O1412       O  0.96207273  0.17786662  0.01402431    -0.80800
O1413       O  0.48644855  0.29292047  0.42402763    -0.80700
O1414       O  0.93951820  0.20441970  0.03153472    -0.80900
O1415       O  0.53711792  0.31306225  0.41980002    -0.80800
O1416       O  0.96667944  0.30710595  0.50794354    -0.80800
O1417       O  0.00833276  0.21186158  0.47274829    -0.80800
C1418       C  0.50448320  0.23790920  0.40850862     1.08900
C1419       C  0.92821417  0.25834273  0.02694401     1.08800
C1420       C  0.93744854  0.17875378  0.02103503     1.08900
C1421       C  0.51162501  0.30798499  0.40320029     1.08800
O1422       O  0.55991758  0.32473370  0.50900617    -0.80800
O1423       O  0.95912355  0.22180292  0.11587771    -0.80800
O1424       O  0.52522169  0.21693509  0.98497248    -0.80800
O1425       O  0.48506495  0.30778911  0.04451363    -0.80800
O1426       O  0.00144596  0.28106506  0.09572934    -0.80800
O1427       O  0.55988275  0.27094694  0.51079621    -0.80800
O1428       O  0.52735440  0.33884404  0.48470519    -0.80700
O1429       O  0.99566540  0.21829268  0.07879863    -0.80800
Co1430     Co  0.54533137  0.29038165  0.46784722     1.51500
Co1431     Co  0.97381827  0.24427300  0.06210335     1.51700
Co1432     Co  0.98681556  0.22110296  0.01209250     1.51600
Co1433     Co  0.48676946  0.29587649  0.98116275     1.51500
O1434       O  0.00064759  0.26572633  0.00908596    -1.42700
C1435       C  0.55362442  0.34545232  0.50037371     1.08800
C1436       C  0.97991969  0.21425508  0.11470290     1.08900
C1437       C  0.55735767  0.24612966  0.49904125     1.08900
C1438       C  0.99640093  0.30313850  0.09326067     1.08800
O1439       O  0.69315735  0.25671700  0.46202599    -0.80800
O1440       O  0.78069331  0.25105097  0.08454565    -0.80800
O1441       O  0.69968045  0.21029896  0.08428179    -0.80800
O1442       O  0.79590860  0.33557404  0.50853096    -0.80700
O1443       O  0.73291762  0.19393450  0.08190285    -0.80900
O1444       O  0.74612023  0.30897317  0.49113462    -0.80800
O1445       O  0.76230310  0.28247144  0.07420466    -0.80800
O1446       O  0.68022337  0.23652055  0.02402083    -0.80800
C1447       C  0.67687848  0.25100641  0.49704444     1.08900
C1448       C  0.77386711  0.27063374  0.09923082     1.08800
C1449       C  0.71376951  0.19863448  0.10326623     1.08900
C1450       C  0.77090822  0.33499774  0.49912235     1.08800
O1451       O  0.74416507  0.28950637  0.40669874    -0.80800
O1452       O  0.74507267  0.18977127  0.98853742    -0.80800
O1453       O  0.68598263  0.20321133  0.46346478    -0.80800
O1454       O  0.81913357  0.29782915  0.51592816    -0.80800
O1455       O  0.79494498  0.24422198  0.98998243    -0.80800
O1456       O  0.72943856  0.23199171  0.42666746    -0.80800
O1457       O  0.78590906  0.29584948  0.44243776    -0.80700
O1458       O  0.69836993  0.16816519  0.01696134    -0.80800
Co1459     Co  0.73876632  0.26845836  0.46080315     1.51500
Co1460     Co  0.76255552  0.22076283  0.03390859     1.51700
Co1461     Co  0.69225658  0.20512054  0.02012767     1.51600
Co1462     Co  0.76951854  0.28310346  0.01030913     1.51500
O1463       O  0.73720933  0.23832957  0.01022793    -1.42700
C1464       C  0.77281418  0.29788451  0.40663542     1.08800
C1465       C  0.71990695  0.16605053  0.99729726     1.08900
C1466       C  0.70200877  0.20969341  0.42795196     1.08900
C1467       C  0.81743579  0.26732124  0.00591514     1.08800
C1468       C  0.59882053  0.24075769  0.45906171    -0.14000
C1469       C  0.58576946  0.24333487  0.49899189     0.08200
C1470       C  0.60004262  0.24347710  0.03405445    -0.14000
C1471       C  0.62966849  0.24690225  0.03054149    -0.14000
C1472       C  0.64604367  0.24957947  0.49712349     0.08200
C1473       C  0.62869561  0.24410522  0.45807162    -0.14000
H1474       H  0.58641189  0.23734613  0.42836324     0.09500
H1475       H  0.59288417  0.24845125  0.06529703     0.12200
H1476       H  0.64417943  0.25360619  0.05958417     0.12200
H1477       H  0.63811602  0.24213159  0.42677183     0.12200
C1478       C  0.89123370  0.27482731  0.05569321    -0.14000
C1479       C  0.89879187  0.25902894  0.02453107     0.08200
C1480       C  0.91125851  0.30988524  0.51272841    -0.14000
C1481       C  0.88245153  0.30840173  0.51380329    -0.14000
C1482       C  0.84732336  0.26768310  0.01075463     0.08200
C1483       C  0.86582910  0.27932074  0.04868779    -0.14000
H1484       H  0.90546755  0.28442203  0.08470931     0.12200
H1485       H  0.92940186  0.32542304  0.53474448     0.12200
H1486       H  0.87894881  0.32284683  0.53652028     0.12200
H1487       H  0.86014276  0.29111833  0.07343744     0.12200
C1488       C  0.79671341  0.41955525  0.49005398    -0.14000
C1489       C  0.76823805  0.41828013  0.48326685     0.08200
C1490       C  0.74086504  0.38954809  0.48424731    -0.14000
C1491       C  0.74176475  0.36280033  0.49071667    -0.14000
C1492       C  0.77009672  0.36384159  0.49681596     0.08200
C1493       C  0.79759587  0.39253802  0.49699580    -0.14000
H1494       H  0.81807960  0.44121075  0.48986827     0.12200
H1495       H  0.71836214  0.38750567  0.47916349     0.12200
H1496       H  0.72027429  0.34128454  0.49021616     0.12200
H1497       H  0.81990865  0.39407271  0.50139215     0.12200
C1498       C  0.69319725  0.08156878  0.99945537    -0.14000
C1499       C  0.72155678  0.08253462  0.99017506     0.08200
C1500       C  0.74732967  0.11006735  0.97797030    -0.14000
C1501       C  0.74578176  0.13662980  0.97746686    -0.14000
C1502       C  0.71841377  0.13647585  0.98998807     0.08200
C1503       C  0.69178580  0.10850667  0.99991012    -0.14000
H1504       H  0.67262934  0.06028266  0.00841481     0.12200
H1505       H  0.76907256  0.11109945  0.96977228     0.12200
H1506       H  0.76675916  0.15763930  0.96930554     0.12200
H1507       H  0.67038142  0.10765426  0.00949451     0.12200
C1508       C  0.60908195  0.42537031  0.46155571    -0.14000
C1509       C  0.63535859  0.43132943  0.48599221     0.08200
C1510       C  0.63216093  0.41210709  0.52173130    -0.14000
C1511       C  0.60421927  0.38536030  0.52950974    -0.14000
C1512       C  0.57885977  0.37743685  0.50186412     0.08200
C1513       C  0.58083812  0.39847220  0.46957023    -0.14000
H1514       H  0.61104693  0.43988375  0.43393240     0.12200
H1515       H  0.65206292  0.41660085  0.54161533     0.12200
H1516       H  0.60316527  0.36972877  0.55494498     0.12200
H1517       H  0.56150788  0.39277333  0.44769849     0.12200
C1518       C  0.85214340  0.11962905  0.03705997    -0.14000
C1519       C  0.84823512  0.09730173  0.00641869     0.08200
C1520       C  0.87369093  0.10225739  0.98012710    -0.14000
C1521       C  0.90263773  0.12859502  0.98503494    -0.14000
C1522       C  0.90659338  0.15103131  0.01548300     0.08200
C1523       C  0.88094170  0.14650116  0.04103441    -0.14000
H1524       H  0.83292492  0.11632426  0.05785807     0.12200
H1525       H  0.87146172  0.08528753  0.95652347     0.12200
H1526       H  0.92188762  0.13150579  0.96485047     0.12200
H1527       H  0.88339297  0.16336805  0.06483466     0.12200
C1528       C  0.79800339  0.99794108  0.15008099    -0.17100
C1529       C  0.80864912  0.99827003  0.10884721    -0.32200
H1530       H  0.77617216  0.99751289  0.15505653     0.12000
H1531       H  0.83093049  0.99939836  0.10497099     0.12500
C1532       C  0.81539627  0.00127113  0.31757646    -0.17100
C1533       C  0.79940578  0.51099837  0.34336397    -0.32200
H1534       H  0.83534742  0.01172850  0.33950635     0.12000
H1535       H  0.82261587  0.53041568  0.34218766     0.12500
C1536       C  0.79050507  0.30930785  0.15805487    -0.17100
C1537       C  0.78098921  0.28049520  0.14569460    -0.32200
H1538       H  0.79415245  0.32638903  0.13324693     0.12000
H1539       H  0.78064352  0.26433807  0.16978985     0.12500
C1540       C  0.77983650  0.30061190  0.32527743    -0.17100
C1541       C  0.79158540  0.30974321  0.36600214    -0.32200
H1542       H  0.75590786  0.28252984  0.32147711     0.12000
H1543       H  0.81592969  0.32682501  0.36963758     0.12500
C1544       C  0.83733744  0.41204448  0.19902141    -0.14000
C1545       C  0.83250869  0.39918179  0.24147100     0.08200
C1546       C  0.83347300  0.41690475  0.27785801    -0.14000
C1547       C  0.83495279  0.44486907  0.27154452    -0.14000
C1548       C  0.83652025  0.45628353  0.22876420     0.08200
C1549       C  0.83983758  0.44050506  0.19279938    -0.14000
H1550       H  0.83735438  0.39951469  0.17016016     0.12200
H1551       H  0.83159481  0.40865300  0.31133833     0.12200
H1552       H  0.83280900  0.45634070  0.30014405     0.12200
H1553       H  0.84277763  0.44929431  0.15943307     0.12200
C1554       C  0.00226711  0.31180310  0.17395682    -0.17100
C1555       C  0.99932104  0.32115370  0.13331034    -0.32200
H1556       H  0.00493862  0.29199429  0.17679354     0.12000
H1557       H  0.49651923  0.34061076  0.11711895     0.12500
C1558       C  0.51414813  0.31393002  0.32273018    -0.17100
C1559       C  0.51154707  0.32356095  0.36266875    -0.32200
H1560       H  0.97104670  0.30502522  0.36188484     0.12000
H1561       H  0.50580010  0.34150548  0.36558568     0.12500
C1562       C  0.93370659  0.36704382  0.23210581    -0.14000
C1563       C  0.93511645  0.34013120  0.23101729     0.08200
C1564       C  0.90759282  0.31202107  0.22717678    -0.14000
C1565       C  0.87892641  0.31052614  0.22876905    -0.14000
C1566       C  0.87734746  0.33712574  0.23371986     0.08200
C1567       C  0.90481016  0.36553803  0.23316361    -0.14000
H1568       H  0.95465927  0.38880459  0.23595762     0.12200
H1569       H  0.90828045  0.29105506  0.22675833     0.12200
H1570       H  0.85790245  0.28842475  0.22872683     0.12200
H1571       H  0.90390774  0.38629129  0.23701358     0.12200
C1572       C  0.71280264  0.01619067  0.16742826    -0.17100
C1573       C  0.70037226  0.00684972  0.12752488    -0.32200
H1574       H  0.73782900  0.02870587  0.17115763     0.12000
H1575       H  0.73834013  0.52818250  0.14155083     0.12500
C1576       C  0.69012769  0.98669765  0.32758055    -0.17100
C1577       C  0.71463905  0.00783283  0.34969874    -0.32200
H1578       H  0.67582911  0.96421988  0.34220205     0.12000
H1579       H  0.72431257  0.54026869  0.33164468     0.12500
C1580       C  0.59570903  0.44044339  0.18563032    -0.14000
C1581       C  0.60448949  0.46146719  0.22025358     0.08200
C1582       C  0.58330370  0.45614688  0.25451476    -0.14000
C1583       C  0.55546344  0.42849052  0.25716957    -0.14000
C1584       C  0.54844013  0.40580586  0.22564050     0.08200
C1585       C  0.56770662  0.41259794  0.18834194    -0.14000
H1586       H  0.61195370  0.44400897  0.15921693     0.12200
H1587       H  0.58972650  0.47202648  0.28151835     0.12200
H1588       H  0.54089356  0.42358997  0.28625070     0.12200
H1589       H  0.56283481  0.39523011  0.16398605     0.12200
C1590       C  0.70600286  0.18817883  0.14947371    -0.17100
C1591       C  0.69938026  0.20357490  0.17933018    -0.32200
H1592       H  0.70545818  0.16725726  0.15918286     0.12000
H1593       H  0.70241519  0.22578731  0.17106328     0.12500
C1594       C  0.69893065  0.20427445  0.34656854    -0.17100
C1595       C  0.68750631  0.19255801  0.38702389    -0.32200
H1596       H  0.71976441  0.22647660  0.34393007     0.12000
H1597       H  0.66609737  0.17084356  0.38986060     0.12500
C1598       C  0.64070891  0.08710979  0.23906852    -0.14000
C1599       C  0.66852871  0.11369416  0.24964532     0.08200
C1600       C  0.69589693  0.11246835  0.25344852    -0.14000
C1601       C  0.69521957  0.08482461  0.24992762    -0.14000
C1602       C  0.66714654  0.05785025  0.24261416     0.08200
C1603       C  0.64000406  0.05915724  0.23568662    -0.14000
H1604       H  0.61939416  0.08768850  0.23608205     0.12200
H1605       H  0.71766868  0.13281497  0.26097222     0.12200
H1606       H  0.71637112  0.08421474  0.25502083     0.12200
H1607       H  0.61811391  0.03844849  0.23023122     0.12200
C1608       C  0.97851422  0.20493423  0.19468168    -0.17100
C1609       C  0.98769838  0.20227956  0.15425360    -0.32200
H1610       H  0.96492658  0.21626363  0.19830367     0.12000
H1611       H  0.50458992  0.19177641  0.13461352     0.12500
C1612       C  0.51977737  0.22091842  0.34227405    -0.17100
C1613       C  0.49845130  0.22458252  0.36395914    -0.32200
H1614       H  0.54259726  0.22970537  0.35698925     0.12000
H1615       H  0.47504950  0.21449895  0.35085763     0.12500
C1616       C  0.55431296  0.14850354  0.26114907    -0.14000
C1617       C  0.55665084  0.17276067  0.23555314     0.08200
C1618       C  0.58374634  0.19074627  0.21081284    -0.14000
C1619       C  0.60914701  0.18616535  0.21465936    -0.14000
C1620       C  0.60783009  0.16397254  0.24399074     0.08200
C1621       C  0.57985918  0.14433936  0.26570503    -0.14000
H1622       H  0.53387633  0.13487986  0.28125883     0.12200
H1623       H  0.58627150  0.21003774  0.19181156     0.12200
H1624       H  0.63072463  0.20182570  0.19822766     0.12200
H1625       H  0.57858848  0.12740991  0.28890234     0.12200
C1626       C  0.93786498  0.10902725  0.21488915    -0.14000
C1627       C  0.94814947  0.11510416  0.25869914     0.08200
C1628       C  0.93418883  0.09166882  0.29039116    -0.14000
C1629       C  0.90889223  0.06344690  0.27917314    -0.14000
C1630       C  0.89728890  0.05783345  0.23575163     0.08200
C1631       C  0.91301090  0.08066106  0.20341363    -0.14000
H1632       H  0.94791980  0.12664668  0.18963230     0.12200
H1633       H  0.94201306  0.09550478  0.32428732     0.12200
H1634       H  0.89771521  0.04694347  0.30536065     0.12200
H1635       H  0.90569536  0.07717124  0.16940225     0.12200
C1636       C  0.99785942  0.20344510  0.80453153     0.85900
C1637       C  0.54143299  0.19829869  0.78312021    -0.54400
C1638       C  0.53689854  0.18300580  0.74455896     0.08800
C1639       C  0.50480153  0.17212620  0.72385254     0.19700
C1640       C  0.99722427  0.21714175  0.75962968    -0.55100
C1641       C  0.50201851  0.20116707  0.72061750     0.08900
C1642       C  0.97055305  0.17051711  0.80313938    -0.54600
C1643       C  0.97163702  0.15415606  0.76796029     0.09500
H1644       H  0.56248514  0.20653194  0.80239395     0.14000
H1645       H  0.50163940  0.16008700  0.69216689    -0.00300
H1646       H  0.99624360  0.23785990  0.75574480     0.14300
H1647       H  0.95163069  0.16147585  0.82704212     0.14100
C1648       C  0.68239141  0.17638759  0.79856670     0.85900
C1649       C  0.67379809  0.14292629  0.79845950    -0.54400
C1650       C  0.65798165  0.12732952  0.76179765     0.08800
C1651       C  0.65175079  0.14678666  0.72856004     0.19700
C1652       C  0.70028605  0.18968227  0.75460161    -0.55100
C1653       C  0.68385001  0.17423707  0.71788220     0.08900
C1654       C  0.65172030  0.17599534  0.79191950    -0.54600
C1655       C  0.63574634  0.16071355  0.75525161     0.09500
H1656       H  0.68076329  0.13275761  0.82446403     0.14000
H1657       H  0.63857155  0.13420068  0.69887828    -0.00300
H1658       H  0.72266124  0.21049842  0.75261968     0.14300
H1659       H  0.64417801  0.18838892  0.81298984     0.14100
C1660       C  0.68009696  0.98592126  0.78175109     0.85900
C1661       C  0.64890841  0.47550362  0.76138744    -0.54400
C1662       C  0.63421365  0.47801312  0.72499724     0.08800
C1663       C  0.65937382  0.99702488  0.70894788     0.19700
C1664       C  0.70451734  0.99945595  0.74484446    -0.55100
C1665       C  0.69376680  0.00505453  0.70642804     0.08900
C1666       C  0.66847947  0.00851154  0.78730032    -0.54600
C1667       C  0.65815629  0.01501533  0.74925617     0.09500
H1668       H  0.63766063  0.45665005  0.78470702     0.14000
H1669       H  0.65022751  0.00154522  0.67819674    -0.00300
H1670       H  0.72805050  0.00374201  0.74853637     0.14300
H1671       H  0.67008305  0.01974357  0.81844370     0.14100
C1672       C  0.49390859  0.32622624  0.78886365     0.85900
C1673       C  0.97464853  0.33223152  0.79630821    -0.54400
C1674       C  0.97336147  0.34638626  0.75856071     0.08800
C1675       C  0.99623535  0.34838264  0.72233181     0.19700
C1676       C  0.50018396  0.31173295  0.74870170    -0.55100
C1677       C  0.98816988  0.31508240  0.71538619     0.08900
C1678       C  0.51747146  0.36037901  0.78478321    -0.54600
C1679       C  0.51674228  0.37300226  0.74494046     0.09500
H1680       H  0.95906670  0.32764691  0.82425900     0.14000
H1681       H  0.99563655  0.36020349  0.69167864    -0.00300
H1682       H  0.50471638  0.29291531  0.75148876     0.14300
H1683       H  0.53460084  0.37293318  0.80997118     0.14100
C1684       C  0.80486096  0.31555801  0.78941147     0.85900
C1685       C  0.80756102  0.34686509  0.78818550    -0.54400
C1686       C  0.82566299  0.36511636  0.75469975     0.08800
C1687       C  0.83959460  0.35062601  0.72500600     0.19700
C1688       C  0.79310972  0.30234519  0.74324220    -0.55100
C1689       C  0.81127414  0.32093356  0.70946611     0.08900
C1690       C  0.83840214  0.32201361  0.79069864    -0.54600
C1691       C  0.85665712  0.34046008  0.75698075     0.09500
H1692       H  0.79531766  0.35370522  0.81098047     0.14000
H1693       H  0.85427699  0.36571078  0.69762586    -0.00300
H1694       H  0.77180786  0.28091630  0.73778554     0.14300
H1695       H  0.84695069  0.31281256  0.81594242     0.14100
C1696       C  0.81724947  0.00341626  0.68985281     0.85900
C1697       C  0.81163154  0.48083786  0.69288493    -0.54400
C1698       C  0.82805285  0.47767311  0.72612411     0.08800
C1699       C  0.85208014  0.00759827  0.75650473     0.19700
C1700       C  0.80113168  0.99911568  0.73519779    -0.55100
C1701       C  0.81963771  0.00147743  0.77031088     0.08900
C1702       C  0.84726161  0.03428536  0.69292978    -0.54600
C1703       C  0.86566043  0.03668643  0.72781838     0.09500
H1704       H  0.79791614  0.46265796  0.66983384     0.14000
H1705       H  0.86695712  0.00925637  0.78477055    -0.00300
H1706       H  0.77794613  0.99570354  0.73912125     0.14300
H1707       H  0.85283178  0.05291272  0.66995408     0.14100
O1708       O  0.69882784  0.47286258  0.89763359    -0.80800
O1709       O  0.80491775  0.06151838  0.53790863    -0.80800
O1710       O  0.70354076  0.03686887  0.48721724    -0.80800
O1711       O  0.79306321  0.00929984  0.90433523    -0.80700
O1712       O  0.75340843  0.06145889  0.50320708    -0.80900
O1713       O  0.74793119  0.46944331  0.88947007    -0.80800
O1714       O  0.81208599  0.05334760  0.96753067    -0.80800
O1715       O  0.72623401  0.01592311  0.92449509    -0.80800
C1716       C  0.69735635  0.49648508  0.89182896     1.08900
C1717       C  0.82208184  0.07365807  0.50428781     1.08800
C1718       C  0.72798561  0.06171663  0.49506719     1.08900
C1719       C  0.77456288  0.49046064  0.87924331     1.08800
O1720       O  0.74077555  0.44137476  0.97668797    -0.80800
O1721       O  0.75119307  0.04127750  0.58770115    -0.80800
O1722       O  0.67447531  0.47952554  0.45491681    -0.80800
O1723       O  0.81427337  0.01676678  0.53294337    -0.80800
O1724       O  0.76934224  0.00034455  0.56768391    -0.80800
O1725       O  0.68738404  0.45007318  0.98932441    -0.80800
O1726       O  0.79218089  0.46530965  0.97000878    -0.80700
O1727       O  0.71274787  0.00449821  0.55030844    -0.80800
Co1728     Co  0.72257273  0.46458151  0.94283166     1.51500
Co1729     Co  0.76028817  0.02792686  0.53373406     1.51700
Co1730     Co  0.72569869  0.01559944  0.48399257     1.51600
Co1731     Co  0.80001152  0.00992410  0.96858861     1.51500
O1732       O  0.75481521  0.99880617  0.97967281    -1.42700
C1733       C  0.76650876  0.44079531  0.97625376     1.08800
C1734       C  0.72328743  0.01964725  0.58638544     1.08900
C1735       C  0.66350030  0.45363268  0.99421180     1.08900
C1736       C  0.79709463  0.00599005  0.56741171     1.08800
O1737       O  0.52953932  0.25003746  0.92172470    -0.80800
O1738       O  0.94085432  0.26037621  0.48891933    -0.80800
O1739       O  0.96355864  0.18962594  0.53818067    -0.80800
O1740       O  0.48920067  0.28865668  0.91790046    -0.80700
O1741       O  0.93725196  0.20704242  0.50337382    -0.80900
O1742       O  0.53954978  0.30698312  0.91899846    -0.80800
O1743       O  0.94389219  0.26346391  0.99207060    -0.80800
O1744       O  0.97984199  0.22073056  0.94866897    -0.80800
C1745       C  0.50209815  0.23125670  0.90823205     1.08900
C1746       C  0.94226443  0.28569641  0.49352455     1.08800
C1747       C  0.93946716  0.18493359  0.51727688     1.08900
C1748       C  0.51522942  0.30169587  0.89841262     1.08800
O1749       O  0.55805890  0.31626430  0.01076126    -0.80800
O1750       O  0.95668857  0.22311054  0.59569205    -0.80800
O1751       O  0.53125272  0.22580057  0.48417363    -0.80800
O1752       O  0.48715658  0.31041532  0.55211589    -0.80800
O1753       O  0.96504428  0.27886838  0.58133965    -0.80800
O1754       O  0.55370995  0.26098493  0.01387964    -0.80800
O1755       O  0.52937452  0.33356579  0.98171502    -0.80700
O1756       O  0.00633853  0.23713014  0.59593766    -0.80800
Co1757     Co  0.54323955  0.28253912  0.96900480     1.51500
Co1758     Co  0.95277198  0.24334915  0.53999178     1.51700
Co1759     Co  0.00747211  0.22639329  0.53466350     1.51600
Co1760     Co  0.48650994  0.29935485  0.48766001     1.51500
O1761       O  0.99722446  0.25951800  0.51741815    -1.42700
C1762       C  0.55373709  0.33818958  0.00195125     1.08800
C1763       C  0.98089417  0.22745973  0.61600792     1.08900
C1764       C  0.55133118  0.23662093  0.00035399     1.08900
C1765       C  0.99216277  0.30015726  0.59155556     1.08800
O1766       O  0.68815353  0.24927192  0.95453035    -0.80800
O1767       O  0.79384431  0.26282117  0.58055130    -0.80800
O1768       O  0.70995738  0.21973547  0.59051868    -0.80800
O1769       O  0.78930729  0.32618882  0.00915506    -0.80700
O1770       O  0.74603273  0.20674763  0.58528095    -0.80900
O1771       O  0.74022563  0.30041759  0.98810126    -0.80800
O1772       O  0.77290991  0.29239655  0.57586683    -0.80800
O1773       O  0.68611685  0.24421000  0.53178279    -0.80800
C1774       C  0.67141894  0.24347258  0.98919942     1.08900
C1775       C  0.78558884  0.28037920  0.59835587     1.08800
C1776       C  0.72629140  0.20989526  0.60805013     1.08900
C1777       C  0.76473521  0.32611858  0.99820479     1.08800
O1778       O  0.74302244  0.28332260  0.90392922    -0.80800
O1779       O  0.75214454  0.19891816  0.49048490    -0.80800
O1780       O  0.68103581  0.19595509  0.95530003    -0.80800
O1781       O  0.81164204  0.28674700  0.02256169    -0.80800
O1782       O  0.80315303  0.25415640  0.48579647    -0.80800
O1783       O  0.72584231  0.22476926  0.92157162    -0.80800
O1784       O  0.78251863  0.28727517  0.94354933    -0.80700
O1785       O  0.70713074  0.17771422  0.52421055    -0.80800
Co1786     Co  0.73390630  0.26050180  0.95703454     1.51500
Co1787     Co  0.77247777  0.23155599  0.53312919     1.51700
Co1788     Co  0.70003148  0.21387618  0.52714172     1.51600
Co1789     Co  0.77628574  0.29257066  0.51082362     1.51500
O1790       O  0.74479371  0.24774114  0.51336796    -1.42700
C1791       C  0.77154705  0.29128965  0.90695345     1.08800
C1792       C  0.72797674  0.17534875  0.50310521     1.08900
C1793       C  0.69850725  0.20229596  0.92128918     1.08900
C1794       C  0.82543682  0.27980178  0.49598850     1.08800
C1795       C  0.59054876  0.22892892  0.95732395    -0.14000
C1796       C  0.57998010  0.23431550  0.99773240     0.08200
C1797       C  0.60316829  0.24902754  0.53786097    -0.14000
C1798       C  0.63258042  0.25154463  0.53709905    -0.14000
C1799       C  0.64072745  0.24220064  0.99015287     0.08200
C1800       C  0.62072875  0.23305819  0.95348556    -0.14000
H1801       H  0.57596653  0.22270946  0.92839901     0.09500
H1802       H  0.59408969  0.25191093  0.56890593     0.12200
H1803       H  0.64507365  0.25557488  0.56785464     0.12200
H1804       H  0.62823168  0.22866371  0.92210320     0.12200
C1805       C  0.89177761  0.26950873  0.45864078    -0.14000
C1806       C  0.91541569  0.28935572  0.48661991     0.08200
C1807       C  0.88031391  0.24761153  0.98669749    -0.14000
C1808       C  0.85478246  0.25153163  0.98018515    -0.14000
C1809       C  0.85770782  0.28657679  0.48844259     0.08200
C1810       C  0.86316329  0.26811985  0.45954530    -0.14000
H1811       H  0.89482413  0.25387761  0.43789380     0.12200
H1812       H  0.88575981  0.23565012  0.96185872     0.12200
H1813       H  0.84065779  0.24173721  0.95110585     0.12200
H1814       H  0.84466860  0.25133233  0.43925326     0.12200
C1815       C  0.79128168  0.41079626  0.00276750    -0.14000
C1816       C  0.76561756  0.41150470  0.98505929     0.08200
C1817       C  0.73906515  0.38377124  0.97421065    -0.14000
C1818       C  0.73840559  0.35600746  0.97968281    -0.14000
C1819       C  0.76423822  0.35524195  0.99666928     0.08200
C1820       C  0.79049687  0.38296203  0.00874933    -0.14000
H1821       H  0.81191794  0.43168981  0.01169735     0.12200
H1822       H  0.71896239  0.38358736  0.96011136     0.12200
H1823       H  0.71799560  0.33527607  0.96962770     0.12200
H1824       H  0.81088301  0.38325320  0.02197232     0.12200
C1825       C  0.69922108  0.09046585  0.49946296    -0.14000
C1826       C  0.72737442  0.09052102  0.49430921     0.08200
C1827       C  0.75505486  0.11839540  0.49052094    -0.14000
C1828       C  0.75474467  0.14567441  0.49192560    -0.14000
C1829       C  0.72677977  0.14580919  0.49804295     0.08200
C1830       C  0.69896521  0.11792364  0.50184071    -0.14000
H1831       H  0.67749608  0.06919121  0.50288157     0.12200
H1832       H  0.77708039  0.11914987  0.48669977     0.12200
H1833       H  0.77666897  0.16677544  0.48950323     0.12200
H1834       H  0.67714712  0.11737219  0.50687810     0.12200
C1835       C  0.60570930  0.42335669  0.99035802    -0.14000
C1836       C  0.63363551  0.42687346  0.00667292     0.08200
C1837       C  0.63344077  0.40237672  0.02865251    -0.14000
C1838       C  0.60645973  0.37403381  0.03065605    -0.14000
C1839       C  0.57923710  0.36952798  0.01012567     0.08200
C1840       C  0.57863594  0.39478448  0.99191279    -0.14000
H1841       H  0.60537064  0.44199034  0.97314509     0.12200
H1842       H  0.65464693  0.40465378  0.04198164     0.12200
H1843       H  0.60757788  0.35517363  0.04558767     0.12200
H1844       H  0.55796106  0.39203735  0.97612176     0.12200
C1845       C  0.86957175  0.10909564  0.54729149    -0.14000
C1846       C  0.85262663  0.10177081  0.50772199     0.08200
C1847       C  0.86617612  0.12033351  0.47029929    -0.14000
C1848       C  0.89539709  0.14651475  0.47285348    -0.14000
C1849       C  0.91209892  0.15422878  0.51256652     0.08200
C1850       C  0.89925044  0.13497123  0.54953780    -0.14000
H1851       H  0.85991595  0.09477590  0.57634406     0.12200
H1852       H  0.85378043  0.11497584  0.43918011     0.12200
H1853       H  0.90468711  0.16122023  0.44412760     0.12200
H1854       H  0.91147026  0.14080589  0.58078590     0.12200
C1855       C  0.79869578  0.00123582  0.64915978    -0.17100
C1856       C  0.81126208  0.00352435  0.60863829    -0.32200
H1857       H  0.77585832  0.99874465  0.65281394     0.12000
H1858       H  0.83439690  0.00657968  0.60603756     0.12500
C1859       C  0.81163922  0.00170115  0.81770732    -0.17100
C1860       C  0.78347476  0.49505724  0.83219392    -0.32200
H1861       H  0.83065692  0.01611410  0.83948138     0.12000
H1862       H  0.76531581  0.48241163  0.80843351     0.12500
C1863       C  0.80340727  0.31470121  0.66213061    -0.17100
C1864       C  0.79162320  0.28663389  0.64574821    -0.32200
H1865       H  0.80939395  0.33378589  0.64003144     0.12000
H1866       H  0.78883126  0.26815409  0.66706604     0.12500
C1867       C  0.78436954  0.29658861  0.82732058    -0.17100
C1868       C  0.79273448  0.30538027  0.86925441    -0.32200
H1869       H  0.76182517  0.27695549  0.82044236     0.12000
H1870       H  0.81587022  0.32405099  0.87615508     0.12500
C1871       C  0.85520936  0.42168648  0.74914902    -0.14000
C1872       C  0.82730859  0.39409309  0.74507497     0.08200
C1873       C  0.79989169  0.39397405  0.73499208    -0.14000
C1874       C  0.80020197  0.42124418  0.72914881    -0.14000
C1875       C  0.82797295  0.44903286  0.73361863     0.08200
C1876       C  0.85550134  0.44919294  0.74383080    -0.14000
H1877       H  0.87647560  0.42187945  0.75739998     0.12200
H1878       H  0.77814187  0.37265598  0.73207817     0.12200
H1879       H  0.77868186  0.42063236  0.72179142     0.12200
H1880       H  0.87714006  0.47046872  0.74703398     0.12200
C1881       C  0.98139135  0.30006868  0.67159159    -0.17100
C1882       C  0.99765935  0.31498529  0.63518384    -0.32200
H1883       H  0.96445260  0.27591279  0.66990643     0.12000
H1884       H  0.49969425  0.34296742  0.62329610     0.12500
C1885       C  0.49306362  0.31193438  0.83312284    -0.17100
C1886       C  0.51767895  0.31284494  0.85245638    -0.32200
H1887       H  0.97244961  0.28702103  0.84916741     0.12000
H1888       H  0.53999966  0.32365993  0.83563989     0.12500
C1889       C  0.93838642  0.36386706  0.78883532    -0.14000
C1890       C  0.94812086  0.35349468  0.75254475     0.08200
C1891       C  0.92974857  0.34410330  0.71434952    -0.14000
C1892       C  0.90063798  0.34213838  0.71427452    -0.14000
C1893       C  0.88965449  0.34928569  0.75255391     0.08200
C1894       C  0.90927632  0.36145172  0.78899426    -0.14000
H1895       H  0.95232282  0.37169301  0.81837914     0.12200
H1896       H  0.93661935  0.33578565  0.68602786     0.12200
H1897       H  0.88577364  0.33276614  0.68584566     0.12200
H1898       H  0.90134249  0.36753948  0.81859413     0.12200
C1899       C  0.71407650  0.01737814  0.66687192    -0.17100
C1900       C  0.70290963  0.01027630  0.62573204    -0.32200
H1901       H  0.73902448  0.03038050  0.67181748     0.12000
H1902       H  0.66405099  0.49549341  0.60398388     0.12500
C1903       C  0.69077605  0.97878241  0.82446391    -0.17100
C1904       C  0.71075624  0.00095956  0.85108813    -0.32200
H1905       H  0.67964071  0.95522641  0.83574736     0.12000
H1906       H  0.66721576  0.50753195  0.85306089     0.12500
C1907       C  0.58950342  0.43353416  0.68831338    -0.14000
C1908       C  0.60051509  0.45660553  0.72007642     0.08200
C1909       C  0.58071667  0.45447575  0.75485922    -0.14000
C1910       C  0.55189028  0.42815070  0.76066312    -0.14000
C1911       C  0.54209464  0.40370270  0.73151353     0.08200
C1912       C  0.56026319  0.40724677  0.69378621    -0.14000
H1913       H  0.60460523  0.43454261  0.66160998     0.12200
H1914       H  0.58883764  0.47187454  0.77975463     0.12200
H1915       H  0.53816973  0.42595185  0.79001856     0.12200
H1916       H  0.55327802  0.38861728  0.67106951     0.12200
C1917       C  0.72104117  0.20026222  0.65507453    -0.17100
C1918       C  0.69205889  0.18534220  0.67159487    -0.32200
H1919       H  0.74048009  0.20370935  0.67519459     0.12000
H1920       H  0.67282448  0.17967298  0.64951515     0.12500
C1921       C  0.69914964  0.19328920  0.84015998    -0.17100
C1922       C  0.68545622  0.18445512  0.88039066    -0.32200
H1923       H  0.72189279  0.21358864  0.83699196     0.12000
H1924       H  0.66244780  0.16441601  0.88276838     0.12500
C1925       C  0.63866738  0.07408840  0.78813517    -0.14000
C1926       C  0.65110872  0.09574349  0.75387265     0.08200
C1927       C  0.66112245  0.08840107  0.71480499    -0.14000
C1928       C  0.66122480  0.06085514  0.71167727    -0.14000
C1929       C  0.65105764  0.04023195  0.74750349     0.08200
C1930       C  0.63834630  0.04651615  0.78480659    -0.14000
H1931       H  0.63054410  0.07914400  0.81837954     0.12200
H1932       H  0.67105361  0.10491684  0.68809296     0.12200
H1933       H  0.67135622  0.05680882  0.68269863     0.12200
H1934       H  0.62966581  0.03080325  0.81254899     0.12200
C1935       C  0.99823007  0.20939883  0.67827545    -0.17100
C1936       C  0.97945471  0.21925507  0.66299294    -0.32200
H1937       H  0.01298359  0.20578915  0.65535809     0.12000
H1938       H  0.51169989  0.19569813  0.63322687     0.12500
C1939       C  0.51965887  0.21749889  0.84145200    -0.17100
C1940       C  0.49718833  0.21925193  0.86317905    -0.32200
H1941       H  0.54235683  0.22668287  0.85646985     0.12000
H1942       H  0.47401948  0.20881307  0.84945990     0.12500
C1943       C  0.55427755  0.14513196  0.73714054    -0.14000
C1944       C  0.56009296  0.17492582  0.72998330     0.08200
C1945       C  0.59065259  0.19849687  0.72262404    -0.14000
C1946       C  0.61527716  0.19301637  0.72696564    -0.14000
C1947       C  0.60969382  0.16392118  0.73874210     0.08200
C1948       C  0.57907584  0.13964709  0.74155465    -0.14000
H1949       H  0.53094022  0.12686376  0.74391073     0.12200
H1950       H  0.59559923  0.22165777  0.71784272     0.12200
H1951       H  0.63883471  0.21199720  0.72463292     0.12200
H1952       H  0.57442847  0.11707662  0.75090145     0.12200
C1953       C  0.93839662  0.11385527  0.71381514    -0.14000
C1954       C  0.94639918  0.12281019  0.75790225     0.08200
C1955       C  0.92910389  0.10225000  0.79199712    -0.14000
C1956       C  0.90353459  0.07381550  0.78219212    -0.14000
C1957       C  0.89475201  0.06537860  0.73812787     0.08200
C1958       C  0.91290601  0.08543816  0.70404946    -0.14000
H1959       H  0.95095240  0.12918588  0.68682360     0.12200
H1960       H  0.93498994  0.10833236  0.82624752     0.12200
H1961       H  0.88993905  0.05905093  0.80927912     0.12200
H1962       H  0.90710823  0.07943993  0.66969470     0.12200
C1963       C  0.99796085  0.69368014  0.31151226     0.85900
C1964       C  0.53222717  0.67408875  0.30738197    -0.54400
C1965       C  0.52716903  0.65858887  0.26881320     0.08800
C1966       C  0.49947545  0.65561525  0.24237134     0.19700
C1967       C  0.00030715  0.70905218  0.26654164    -0.55100
C1968       C  0.50613964  0.68863622  0.23631927     0.08900
C1969       C  0.96910861  0.66211199  0.30820094    -0.54600
C1970       C  0.96951038  0.64536986  0.27328444     0.09500
H1971       H  0.55123797  0.67854052  0.32932137     0.14000
H1972       H  0.49553605  0.64310276  0.21087776    -0.00300
H1973       H  0.00154016  0.73092195  0.26286605     0.14300
H1974       H  0.94968506  0.65422238  0.33108819     0.14100
C1975       C  0.68813507  0.69016556  0.29886678     0.85900
C1976       C  0.69103592  0.66195931  0.28985449    -0.54400
C1977       C  0.67743720  0.64756211  0.25118751     0.08800
C1978       C  0.66231088  0.66258158  0.22515967     0.19700
C1979       C  0.70186619  0.71030040  0.25730291    -0.55100
C1980       C  0.68861823  0.69568969  0.21876631     0.08900
C1981       C  0.65336765  0.67881184  0.29652314    -0.54600
C1982       C  0.63973718  0.66410524  0.25824322     0.09500
H1983       H  0.70275957  0.65409890  0.31199614     0.14000
H1984       H  0.65131518  0.65085860  0.19382020    -0.00300
H1985       H  0.72099034  0.73364513  0.25816319     0.14300
H1986       H  0.64055917  0.68225252  0.32286390     0.14100
C1987       C  0.68780959  0.50172085  0.26278529     0.85900
C1988       C  0.64928653  0.96833162  0.26850581    -0.54400
C1989       C  0.63928280  0.97465974  0.23021916     0.08800
C1990       C  0.65937790  0.50834216  0.19450189     0.19700
C1991       C  0.69870921  0.49592984  0.21795756    -0.55100
C1992       C  0.68379388  0.49949139  0.18222263     0.08900
C1993       C  0.69203486  0.53360309  0.25798237    -0.54600
C1994       C  0.67746896  0.53731559  0.22255657     0.09500
H1995       H  0.63558152  0.94715979  0.28681365     0.14000
H1996       H  0.64730724  0.51119527  0.16564356    -0.00300
H1997       H  0.71613713  0.48942842  0.21474278     0.14300
H1998       H  0.70440013  0.55202647  0.28105497     0.14100
C1999       C  0.50716646  0.82566234  0.29175291     0.85900
C2000       C  0.97784479  0.81927060  0.29105346    -0.54400
C2001       C  0.97312553  0.83145442  0.25346101     0.08800
C2002       C  0.99993094  0.84290472  0.21968109     0.19700
C2003       C  0.50710830  0.80899320  0.24971216    -0.55100
C2004       C  0.00434455  0.81551438  0.21184541     0.08900
C2005       C  0.53146315  0.85909370  0.28296761    -0.54600
C2006       C  0.52642434  0.87067891  0.24507889     0.09500
H2007       H  0.96098140  0.80980590  0.31788119     0.14000
H2008       H  0.99634087  0.85280108  0.18893918    -0.00300
H2009       H  0.51175171  0.79023829  0.24972491     0.14300
H2010       H  0.55193963  0.87180224  0.30319121     0.14100
C2011       C  0.80630514  0.80970568  0.28131331     0.85900
C2012       C  0.81782485  0.84378141  0.28214831    -0.54400
C2013       C  0.83635892  0.85970696  0.24718049     0.08800
C2014       C  0.84159171  0.83942612  0.21429112     0.19700
C2015       C  0.79013816  0.79895227  0.23738128    -0.55100
C2016       C  0.80836363  0.81389582  0.20195176     0.08900
C2017       C  0.83539116  0.80703331  0.27762190    -0.54600
C2018       C  0.85443816  0.82330441  0.24336433     0.09500
H2019       H  0.81052375  0.85394816  0.30745053     0.14000
H2020       H  0.85702271  0.85211668  0.18609363    -0.00300
H2021       H  0.76628452  0.77999778  0.23431677     0.14300
H2022       H  0.84151617  0.79499034  0.30179532     0.14100
C2023       C  0.80997678  0.51043639  0.18284926     0.85900
C2024       C  0.82400521  0.97307514  0.18949876    -0.54400
C2025       C  0.84256939  0.97382073  0.22294664     0.08800
C2026       C  0.83614322  0.50681637  0.25558477     0.19700
C2027       C  0.79025544  0.50535787  0.22454310    -0.55100
C2028       C  0.80377545  0.50343803  0.26283972     0.08900
C2029       C  0.84110246  0.53871492  0.19227599    -0.54600
C2030       C  0.85528239  0.53703371  0.22978035     0.09500
H2031       H  0.81395888  0.95497671  0.16528206     0.14000
H2032       H  0.84735238  0.50551959  0.28647925    -0.00300
H2033       H  0.76768207  0.50308197  0.22378769     0.14300
H2034       H  0.85111096  0.55856874  0.17059661     0.14100
O2035       O  0.71294792  0.97516819  0.40818657    -0.80800
O2036       O  0.81145767  0.56367546  0.96487538    -0.80800
O2037       O  0.71285540  0.54316670  0.99532317    -0.80800
O2038       O  0.79046153  0.52364389  0.41531322    -0.80700
O2039       O  0.76051008  0.57125259  0.97033900    -0.80900
O2040       O  0.76211305  0.96765147  0.40288624    -0.80800
O2041       O  0.83120006  0.53605019  0.48253604    -0.80800
O2042       O  0.73167095  0.52747545  0.41087333    -0.80800
C2043       C  0.72124734  0.00219920  0.39480801     1.08900
C2044       C  0.83131536  0.55594018  0.97331714     1.08800
C2045       C  0.73448290  0.56851598  0.98002694     1.08900
C2046       C  0.78186926  0.99177765  0.38287023     1.08800
O2047       O  0.75375396  0.94702640  0.49442471    -0.80800
O2048       O  0.74625093  0.54198255  0.05612420    -0.80800
O2049       O  0.67489929  0.96566371  0.97586029    -0.80800
O2050       O  0.76754448  0.48415614  0.03405008    -0.80800
O2051       O  0.79390394  0.53245081  0.05103585    -0.80800
O2052       O  0.70264020  0.95083789  0.50084959    -0.80800
O2053       O  0.80032148  0.97522883  0.46645174    -0.80700
O2054       O  0.71384408  0.49381861  0.04578631    -0.80800
Co2055     Co  0.73376741  0.96205472  0.45404060     1.51500
Co2056     Co  0.77657755  0.54998513  0.00707579     1.51700
Co2057     Co  0.70999186  0.50274135  0.98240584     1.51600
Co2058     Co  0.78712930  0.51089223  0.47824894     1.51500
O2059       O  0.74353257  0.49954076  0.48298133    -1.42700
C2060       C  0.77985428  0.95044152  0.48446468     1.08800
C2061       C  0.72681854  0.51613481  0.07158239     1.08900
C2062       C  0.67946273  0.95311334  0.49150105     1.08900
C2063       C  0.78186999  0.50460205  0.06214824     1.08800
O2064       O  0.49671914  0.74552832  0.42697640    -0.80800
O2065       O  0.94196183  0.74132751  0.99684434    -0.80800
O2066       O  0.96881584  0.67049938  0.02480335    -0.80800
O2067       O  0.50083671  0.80271624  0.44818162    -0.80700
O2068       O  0.93989821  0.68732309  0.99587746    -0.80900
O2069       O  0.53976449  0.80471474  0.41059104    -0.80800
O2070       O  0.97277400  0.80047091  0.53040100    -0.80800
O2071       O  0.01195164  0.71149438  0.46673322    -0.80800
C2072       C  0.50304503  0.72468147  0.42163561     1.08900
C2073       C  0.94321856  0.76503066  0.01104087     1.08800
C2074       C  0.94488286  0.66568815  0.00318779     1.08900
C2075       C  0.51726021  0.80944629  0.41243281     1.08800
O2076       O  0.55976654  0.81906543  0.49481847    -0.80800
O2077       O  0.95690603  0.69405607  0.08936632    -0.80800
O2078       O  0.55878253  0.74869558  0.03112059    -0.80800
O2079       O  0.51699132  0.78553490  0.08838031    -0.80800
O2080       O  0.96133539  0.74848872  0.09121102    -0.80800
O2081       O  0.56096790  0.77237715  0.45201290    -0.80800
O2082       O  0.53472199  0.84342675  0.51086376    -0.80700
O2083       O  0.00762147  0.71413370  0.09171979    -0.80800
Co2084     Co  0.52585286  0.78045399  0.46236942     1.51500
Co2085     Co  0.95175883  0.71891840  0.04089547     1.51700
Co2086     Co  0.01039932  0.71018171  0.02719367     1.51600
Co2087     Co  0.50927710  0.78656542  0.02515430     1.51500
O2088       O  0.99530446  0.74013120  0.01764444    -1.42700
C2089       C  0.56011178  0.84416865  0.50350501     1.08800
C2090       C  0.98145583  0.70078675  0.11085269     1.08900
C2091       C  0.57501462  0.76979615  0.48485305     1.08900
C2092       C  0.98744632  0.76805446  0.10754282     1.08800
O2093       O  0.70065565  0.76450443  0.45304761    -0.80800
O2094       O  0.77834522  0.76570412  0.08368441    -0.80800
O2095       O  0.70763683  0.72182363  0.08007639    -0.80800
O2096       O  0.80651433  0.83521283  0.48413213    -0.80700
O2097       O  0.74187643  0.70698831  0.08157528    -0.80900
O2098       O  0.75545275  0.81403173  0.47939207    -0.80800
O2099       O  0.81428621  0.80176426  0.04468521    -0.80800
O2100       O  0.68894141  0.74723955  0.01645589    -0.80800
C2101       C  0.68361845  0.76059637  0.48666603     1.08900
C2102       C  0.80132407  0.79198782  0.08128790     1.08800
C2103       C  0.72047620  0.70937875  0.10047329     1.08900
C2104       C  0.78266838  0.83823436  0.48205861     1.08800
O2105       O  0.75376134  0.79031754  0.39883200    -0.80800
O2106       O  0.75840755  0.70507696  0.99009117    -0.80800
O2107       O  0.68629514  0.70743532  0.45574282    -0.80800
O2108       O  0.81865544  0.78761652  0.51578635    -0.80800
O2109       O  0.80385803  0.73272571  0.05337932    -0.80800
O2110       O  0.73196338  0.73247123  0.42436621    -0.80800
O2111       O  0.78918686  0.78451378  0.43531853    -0.80700
O2112       O  0.71044665  0.68175829  0.01351164    -0.80800
Co2113     Co  0.74364999  0.77125330  0.45475998     1.51500
Co2114     Co  0.76974832  0.73715485  0.03542932     1.51700
Co2115     Co  0.70248945  0.71707643  0.01504137     1.51600
Co2116     Co  0.79650360  0.78585517  0.98547393     1.51500
O2117       O  0.74711968  0.75374891  0.00674666    -1.42700
C2118       C  0.77955595  0.79085031  0.39949676     1.08800
C2119       C  0.73282995  0.68074859  0.99513215     1.08900
C2120       C  0.70389862  0.71193005  0.42281172     1.08900
C2121       C  0.82110994  0.74622554  0.02015406     1.08800
C2122       C  0.61891161  0.77116339  0.44291705    -0.14000
C2123       C  0.60691423  0.77546344  0.48244864     0.08200
C2124       C  0.62362424  0.77297932  0.02607646    -0.14000
C2125       C  0.65129120  0.77277859  0.02249933    -0.14000
C2126       C  0.65990118  0.76960535  0.48416820     0.08200
C2127       C  0.64542118  0.76835699  0.44377292    -0.14000
H2128       H  0.60655142  0.76761863  0.41217266     0.09500
H2129       H  0.61593340  0.77573850  0.05845814     0.12200
H2130       H  0.66446243  0.77542631  0.05212125     0.12200
H2131       H  0.65321868  0.76301220  0.41342301     0.12200
C2132       C  0.90101157  0.76429960  0.05395772    -0.14000
C2133       C  0.91470629  0.76613440  0.01269610     0.08200
C2134       C  0.90173321  0.77125676  0.56043374    -0.14000
C2135       C  0.87246979  0.76815497  0.56484897    -0.14000
C2136       C  0.85296738  0.75219164  0.01771338     0.08200
C2137       C  0.87012225  0.75702561  0.05649786    -0.14000
H2138       H  0.91364350  0.76674119  0.08418043     0.12200
H2139       H  0.90979536  0.76181835  0.58586945     0.12200
H2140       H  0.85845623  0.75643891  0.59362972     0.12200
H2141       H  0.85966580  0.75521979  0.08865160     0.12200
C2142       C  0.80964442  0.92280519  0.47064155    -0.14000
C2143       C  0.78431591  0.92372897  0.48973847     0.08200
C2144       C  0.76053362  0.89707954  0.50974754    -0.14000
C2145       C  0.76073861  0.86978101  0.50794691    -0.14000
C2146       C  0.78504799  0.86834464  0.48693349     0.08200
C2147       C  0.81013372  0.89529913  0.46959651    -0.14000
H2148       H  0.82832775  0.94291667  0.45489075     0.12200
H2149       H  0.74079038  0.89687393  0.52524308     0.12200
H2150       H  0.74144358  0.84953938  0.52232438     0.12200
H2151       H  0.82924593  0.89476614  0.45342656     0.12200
C2152       C  0.70543263  0.59611816  0.99653791    -0.14000
C2153       C  0.73077434  0.59573804  0.97672023     0.08200
C2154       C  0.75455174  0.62284668  0.95767897    -0.14000
C2155       C  0.75430760  0.65016015  0.96140969    -0.14000
C2156       C  0.73015295  0.65103296  0.98411480     0.08200
C2157       C  0.70511302  0.62351013  0.00015444    -0.14000
H2158       H  0.68668204  0.57562696  0.01131990     0.12200
H2159       H  0.77427479  0.62331534  0.94156450     0.12200
H2160       H  0.77369508  0.67079572  0.94823243     0.12200
H2161       H  0.68607419  0.62338586  0.01763999     0.12200
C2162       C  0.62110382  0.92737779  0.48920433    -0.14000
C2163       C  0.64819588  0.92652468  0.49883086     0.08200
C2164       C  0.64560193  0.89891935  0.51325594    -0.14000
C2165       C  0.61681767  0.87245493  0.51598837    -0.14000
C2166       C  0.58983696  0.87300904  0.50527603     0.08200
C2167       C  0.59202207  0.90077719  0.49280394    -0.14000
H2168       H  0.62245592  0.94830352  0.47795764     0.12200
H2169       H  0.66596569  0.89742547  0.52103648     0.12200
H2170       H  0.61571507  0.85135026  0.52577924     0.12200
H2171       H  0.57141091  0.90160436  0.48399358     0.12200
C2172       C  0.87537796  0.60434591  0.94423595    -0.14000
C2173       C  0.86444046  0.57997316  0.97442632     0.08200
C2174       C  0.88326119  0.58219237  0.01044191    -0.14000
C2175       C  0.91127701  0.60941518  0.01807751    -0.14000
C2176       C  0.92074898  0.63468021  0.98974729     0.08200
C2177       C  0.90322235  0.63133612  0.95174651    -0.14000
H2178       H  0.86132644  0.60323293  0.91627091     0.12200
H2179       H  0.87506413  0.56392546  0.03467070     0.12200
H2180       H  0.92413284  0.61152392  0.04795223     0.12200
H2181       H  0.91008163  0.65038341  0.92925455     0.12200
C2182       C  0.79641370  0.51510214  0.14062635    -0.17100
C2183       C  0.78651520  0.49567209  0.10649749    -0.32200
H2184       H  0.79737989  0.53686782  0.13673100     0.12000
H2185       H  0.78234418  0.47272390  0.11000748     0.12500
C2186       C  0.78667202  0.49553956  0.30592668    -0.17100
C2187       C  0.78687597  0.99009329  0.33499074    -0.32200
H2188       H  0.76253867  0.47791378  0.30609028     0.12000
H2189       H  0.76657378  0.97695386  0.31443812     0.12500
C2190       C  0.79641432  0.80270100  0.15760155    -0.17100
C2191       C  0.81371973  0.81029384  0.12115033    -0.32200
H2192       H  0.77183140  0.78423332  0.15566793     0.12000
H2193       H  0.83818817  0.82901219  0.12106813     0.12500
C2194       C  0.78619999  0.79372393  0.32014319    -0.17100
C2195       C  0.79867662  0.79892292  0.36027864    -0.32200
H2196       H  0.76119865  0.78041437  0.31600202     0.12000
H2197       H  0.82367947  0.81142730  0.36455507     0.12500
C2198       C  0.84842143  0.90405612  0.19792446    -0.14000
C2199       C  0.84680533  0.89246546  0.24058376     0.08200
C2200       C  0.85064374  0.91111538  0.27712231    -0.14000
C2201       C  0.85173189  0.93894759  0.27143122    -0.14000
C2202       C  0.84972255  0.94891404  0.22891740     0.08200
C2203       C  0.85024289  0.93220820  0.19218350    -0.14000
H2204       H  0.84586189  0.89054621  0.16912804     0.12200
H2205       H  0.85074489  0.90330655  0.31057808     0.12200
H2206       H  0.85170104  0.95124765  0.30034723     0.12200
H2207       H  0.85003215  0.93993162  0.15875245     0.12200
C2208       C  0.00600997  0.80549660  0.16680208    -0.17100
C2209       C  0.98856745  0.77648569  0.15424023    -0.32200
H2210       H  0.01925135  0.82305926  0.14216502     0.12000
H2211       H  0.48684770  0.76419894  0.18555279     0.12500
C2212       C  0.51329296  0.81290812  0.33286131    -0.17100
C2213       C  0.50915688  0.82097251  0.37338051    -0.32200
H2214       H  0.02187100  0.79056913  0.33133942     0.12000
H2215       H  0.49946330  0.83569976  0.37774861     0.12500
C2216       C  0.93291191  0.84163549  0.28359002    -0.14000
C2217       C  0.94481806  0.83352017  0.24744626     0.08200
C2218       C  0.92836440  0.82537098  0.20742894    -0.14000
C2219       C  0.89928969  0.82343362  0.20475864    -0.14000
C2220       C  0.88671365  0.82966096  0.24210511     0.08200
C2221       C  0.90419982  0.83973359  0.28093796    -0.14000
H2222       H  0.94547161  0.84866864  0.31442369     0.12200
H2223       H  0.93719573  0.81902377  0.17916246     0.12200
H2224       H  0.88604796  0.81566068  0.17456175     0.12200
H2225       H  0.89510698  0.84517978  0.30982559     0.12200
C2226       C  0.69090184  0.49647951  0.13551723    -0.17100
C2227       C  0.71980556  0.51312766  0.11940413    -0.32200
H2228       H  0.67164998  0.48428001  0.11287312     0.12000
H2229       H  0.67550741  0.99201543  0.12439110     0.12500
C2230       C  0.70188418  0.49580979  0.30373595    -0.17100
C2231       C  0.71653760  0.51625245  0.33618821    -0.32200
H2232       H  0.69602023  0.47224486  0.30931082     0.12000
H2233       H  0.72802443  0.03078446  0.33625702     0.12500
C2234       C  0.60249441  0.92639813  0.19455244    -0.14000
C2235       C  0.60779172  0.95330148  0.21497431     0.08200
C2236       C  0.58312219  0.95406863  0.23623494    -0.14000
C2237       C  0.55475768  0.92720830  0.24233657    -0.14000
C2238       C  0.55075274  0.89967228  0.22628247     0.08200
C2239       C  0.57397786  0.89965383  0.20005513    -0.14000
H2240       H  0.62151429  0.92523406  0.17907508     0.12200
H2241       H  0.58710593  0.97445405  0.25310765     0.12200
H2242       H  0.53708250  0.92741784  0.26311395     0.12200
H2243       H  0.57124658  0.87838745  0.18795475     0.12200
C2244       C  0.70974547  0.69654228  0.14514514    -0.17100
C2245       C  0.70014861  0.70972336  0.17477043    -0.32200
H2246       H  0.71041090  0.67616153  0.15433565     0.12000
H2247       H  0.70220670  0.73163726  0.16752021     0.12500
C2248       C  0.70296815  0.70631511  0.34169085    -0.17100
C2249       C  0.69107450  0.69423780  0.38184450    -0.32200
H2250       H  0.72280606  0.72903422  0.33965748     0.12000
H2251       H  0.67015182  0.67227262  0.38422921     0.12500
C2252       C  0.65035738  0.59419378  0.22294601    -0.14000
C2253       C  0.67792025  0.62044234  0.23535984     0.08200
C2254       C  0.70592149  0.62038298  0.23425305    -0.14000
C2255       C  0.70612342  0.59377786  0.22422294    -0.14000
C2256       C  0.67816529  0.56654222  0.21647889     0.08200
C2257       C  0.65044967  0.56720588  0.21382228    -0.14000
H2258       H  0.62858929  0.59405593  0.22325299     0.12200
H2259       H  0.72753094  0.64070672  0.24269288     0.12200
H2260       H  0.72784485  0.59383052  0.22595933     0.12200
H2261       H  0.62860093  0.54638208  0.20834956     0.12200
C2262       C  0.00361761  0.70302320  0.18493488    -0.17100
C2263       C  0.97894338  0.69150435  0.15793356    -0.32200
H2264       H  0.02621770  0.72044645  0.17317827     0.12000
H2265       H  0.46779912  0.66532228  0.16699926     0.12500
C2266       C  0.51543508  0.70072858  0.36083157    -0.17100
C2267       C  0.49679758  0.70999009  0.37805698    -0.32200
H2268       H  0.53504550  0.70351838  0.38015817     0.12000
H2269       H  0.47786760  0.70855248  0.35848332     0.12500
C2270       C  0.55643698  0.63259015  0.28642641    -0.14000
C2271       C  0.54847431  0.64793110  0.25503688     0.08200
C2272       C  0.56739759  0.66087186  0.21760445    -0.14000
C2273       C  0.59642687  0.66279185  0.21533416    -0.14000
C2274       C  0.60636157  0.65182790  0.25067039     0.08200
C2275       C  0.58532834  0.63468853  0.28436395    -0.14000
H2276       H  0.54201431  0.62232679  0.31535867     0.12200
H2277       H  0.56158021  0.67288069  0.19306635     0.12200
H2278       H  0.61234046  0.67590494  0.18903487     0.12200
H2279       H  0.59251838  0.62570068  0.31160693     0.12200
C2280       C  0.93565873  0.60580280  0.21900123    -0.14000
C2281       C  0.94273422  0.61495058  0.26303097     0.08200
C2282       C  0.92254941  0.59599695  0.29674580    -0.14000
C2283       C  0.89466605  0.56974318  0.28623551    -0.14000
C2284       C  0.88663636  0.56192856  0.24194672     0.08200
C2285       C  0.90806873  0.57949407  0.20856807    -0.14000
H2286       H  0.95056577  0.61977128  0.19209075     0.12200
H2287       H  0.92777015  0.60190602  0.33113819     0.12200
H2288       H  0.87881517  0.55650351  0.31265641     0.12200
H2289       H  0.90308603  0.57348662  0.17417278     0.12200
C2290       C  0.99821485  0.68735764  0.80553496     0.85900
C2291       C  0.52677561  0.69952540  0.80006996    -0.54400
C2292       C  0.52951005  0.68721703  0.76158111     0.08800
C2293       C  0.49924646  0.67111300  0.73514410     0.19700
C2294       C  0.99514819  0.70093702  0.76136321    -0.55100
C2295       C  0.48881616  0.69499870  0.72972672     0.08900
C2296       C  0.97471850  0.65341996  0.80237015    -0.54600
C2297       C  0.97848496  0.63963575  0.76610316     0.09500
H2298       H  0.54570306  0.71077656  0.82344959     0.14000
H2299       H  0.50170467  0.66132304  0.70376048    -0.00300
H2300       H  0.99094454  0.71991588  0.75907787     0.14300
H2301       H  0.95552399  0.64187371  0.82566757     0.14100
C2302       C  0.68669174  0.68768276  0.79612306     0.85900
C2303       C  0.67475812  0.65352905  0.79304704    -0.54400
C2304       C  0.65628526  0.63985013  0.75733288     0.08800
C2305       C  0.65087775  0.66175415  0.72829461     0.19700
C2306       C  0.70273379  0.70079975  0.75114899    -0.55100
C2307       C  0.68367238  0.68712264  0.71572334     0.08900
C2308       C  0.65766018  0.69070162  0.79517668    -0.54600
C2309       C  0.63894308  0.67744978  0.75967176     0.09500
H2310       H  0.68198489  0.64161645  0.81569170     0.14000
H2311       H  0.63570200  0.65075599  0.69937183    -0.00300
H2312       H  0.72633676  0.71975850  0.74773225     0.14300
H2313       H  0.65268051  0.70291949  0.82026760     0.14100
C2314       C  0.68134519  0.50257347  0.76868232     0.85900
C2315       C  0.65289782  0.95781662  0.76172811    -0.54400
C2316       C  0.64160370  0.96331757  0.72400096     0.08800
C2317       C  0.65400478  0.50770795  0.69809083     0.19700
C2318       C  0.69916529  0.50576663  0.72593439    -0.55100
C2319       C  0.68537284  0.50884734  0.68870883     0.08900
C2320       C  0.67724233  0.53044428  0.76874678    -0.54600
C2321       C  0.66214015  0.53285410  0.73274539     0.09500
H2322       H  0.64207594  0.93551542  0.77762205     0.14000
H2323       H  0.64217411  0.50998787  0.66847608    -0.00300
H2324       H  0.72139822  0.50678343  0.72531054     0.14300
H2325       H  0.68453216  0.54634393  0.79595566     0.14100
C2326       C  0.50671482  0.81910523  0.80084801     0.85900
C2327       C  0.98225711  0.82378652  0.79638418    -0.54400
C2328       C  0.98053825  0.83989344  0.76127979     0.08800
C2329       C  0.00878501  0.85252162  0.72985449     0.19700
C2330       C  0.49837673  0.79646205  0.76281165    -0.55100
C2331       C  0.01125719  0.82468129  0.71712152     0.08900
C2332       C  0.53466361  0.84858175  0.78360686    -0.54600
C2333       C  0.52972767  0.85874799  0.74433200     0.09500
H2334       H  0.96386805  0.81270211  0.82101618     0.14000
H2335       H  0.00756010  0.86560094  0.70109923    -0.00300
H2336       H  0.49773901  0.77472187  0.76619585     0.14300
H2337       H  0.55686325  0.86008620  0.80049633     0.14100
C2338       C  0.81267317  0.81976929  0.77575162     0.85900
C2339       C  0.82369652  0.85370642  0.77842310    -0.54400
C2340       C  0.84490751  0.87106372  0.74672104     0.08800
C2341       C  0.85301027  0.85234821  0.71489230     0.19700
C2342       C  0.80021906  0.81065678  0.72920926    -0.55100
C2343       C  0.82137772  0.82755260  0.69716735     0.08900
C2344       C  0.84225705  0.81766361  0.77673535    -0.54600
C2345       C  0.86371936  0.83525163  0.74556260     0.09500
H2346       H  0.81426846  0.86279769  0.80234601     0.14000
H2347       H  0.87023007  0.86600437  0.68882090    -0.00300
H2348       H  0.77726594  0.79155100  0.72225739     0.14300
H2349       H  0.84649523  0.80449564  0.80135087     0.14100
C2350       C  0.81452953  0.51223247  0.69060874     0.85900
C2351       C  0.82749028  0.97977386  0.68956773    -0.54400
C2352       C  0.84603178  0.98189882  0.72392685     0.08800
C2353       C  0.84533749  0.50595390  0.75517351     0.19700
C2354       C  0.80388778  0.51630663  0.73655029    -0.55100
C2355       C  0.82011180  0.51280561  0.77045324     0.08900
C2356       C  0.84945288  0.53509314  0.68908896    -0.54600
C2357       C  0.86581283  0.53220802  0.72318925     0.09500
H2358       H  0.81962754  0.96209919  0.66470259     0.14000
H2359       H  0.85765373  0.50229422  0.78283149    -0.00300
H2360       H  0.78486672  0.52068989  0.74184701     0.14300
H2361       H  0.85963116  0.55326723  0.66453861     0.14100
O2362       O  0.70770583  0.96762733  0.90962792    -0.80800
O2363       O  0.80805535  0.56386302  0.47845839    -0.80800
O2364       O  0.70030138  0.54304607  0.47018420    -0.80800
O2365       O  0.79226681  0.50669001  0.90925948    -0.80700
O2366       O  0.75169561  0.56766642  0.47503383    -0.80900
O2367       O  0.75717673  0.96064881  0.90310599    -0.80800
O2368       O  0.82192444  0.52857611  0.98502694    -0.80800
O2369       O  0.70489211  0.51494969  0.92264569    -0.80800
C2370       C  0.71586027  0.99464109  0.89682320     1.08900
C2371       C  0.83312548  0.56206117  0.48057743     1.08800
C2372       C  0.72593906  0.56803668  0.47218519     1.08900
C2373       C  0.77737200  0.98474009  0.88334774     1.08800
O2374       O  0.74884531  0.94024376  0.99589021    -0.80800
O2375       O  0.73540229  0.53676936  0.56252406    -0.80800
O2376       O  0.68430285  0.97767072  0.47362227    -0.80800
O2377       O  0.78581254  0.49570999  0.53815135    -0.80800
O2378       O  0.78683515  0.53521217  0.56539704    -0.80800
O2379       O  0.69764073  0.94298442  0.00264519    -0.80800
O2380       O  0.79509893  0.96731020  0.96747549    -0.80700
O2381       O  0.69555202  0.50096159  0.53055579    -0.80800
Co2382     Co  0.72940748  0.95558309  0.95527614     1.51500
Co2383     Co  0.76744585  0.54520201  0.51551109     1.51700
Co2384     Co  0.71579442  0.51553757  0.47230945     1.51600
Co2385     Co  0.77847534  0.49433601  0.97104535     1.51500
O2386       O  0.75183386  0.51202208  0.96774775    -1.42700
C2387       C  0.77440545  0.94275754  0.98574786     1.08800
C2388       C  0.70759147  0.51576844  0.56462914     1.08900
C2389       C  0.67279351  0.94268754  0.99419296     1.08900
C2390       C  0.79014541  0.51253289  0.57027435     1.08800
O2391       O  0.49427872  0.73132588  0.93701733    -0.80800
O2392       O  0.94333038  0.75660570  0.50109634    -0.80800
O2393       O  0.96630368  0.68224543  0.52747070    -0.80800
O2394       O  0.49738278  0.79032242  0.95930958    -0.80700
O2395       O  0.93859040  0.70115206  0.50044320    -0.80900
O2396       O  0.53461087  0.79102971  0.91878662    -0.80800
O2397       O  0.96756880  0.78454726  0.03002012    -0.80800
O2398       O  0.01227494  0.70221250  0.96189860    -0.80800
C2399       C  0.50218269  0.71137266  0.93319969     1.08900
C2400       C  0.94683591  0.78140523  0.51487460     1.08800
C2401       C  0.94253736  0.67873368  0.50654356     1.08900
C2402       C  0.51216615  0.79581223  0.92206025     1.08800
O2403       O  0.55531903  0.80728492  0.00246654    -0.80800
O2404       O  0.95632464  0.70778669  0.59365799    -0.80800
O2405       O  0.56032574  0.75975832  0.52033616    -0.80800
O2406       O  0.52358193  0.80114603  0.57586843    -0.80800
O2407       O  0.96541556  0.76411325  0.59326409    -0.80800
O2408       O  0.55752375  0.76099154  0.96240923    -0.80800
O2409       O  0.53014825  0.83025064  0.02494190    -0.80700
O2410       O  0.00640794  0.72452097  0.59499648    -0.80800
Co2411     Co  0.52177932  0.76742545  0.97131453     1.51500
Co2412     Co  0.95292636  0.73345230  0.54454794     1.51700
Co2413     Co  0.00922541  0.72015032  0.53113843     1.51600
Co2414     Co  0.51322159  0.79997939  0.51339668     1.51500
O2415       O  0.99646898  0.75190807  0.52019315    -1.42700
C2416       C  0.55547649  0.83195268  0.01363569     1.08800
C2417       C  0.98051854  0.71255296  0.61448699     1.08900
C2418       C  0.57254438  0.75941301  0.99470442     1.08900
C2419       C  0.99230824  0.78260688  0.60819560     1.08800
O2420       O  0.69943846  0.75978840  0.94645514    -0.80800
O2421       O  0.78261052  0.77031295  0.58572914    -0.80800
O2422       O  0.70744791  0.72139944  0.58365811    -0.80800
O2423       O  0.79633146  0.82514533  0.98093371    -0.80700
O2424       O  0.74658205  0.71227643  0.58274735    -0.80900
O2425       O  0.74707509  0.80551777  0.97967270    -0.80800
O2426       O  0.77504948  0.80540818  0.55780621    -0.80800
O2427       O  0.68541307  0.74737470  0.52149648    -0.80800
C2428       C  0.68429139  0.75781547  0.98131044     1.08900
C2429       C  0.78073268  0.79391598  0.59032706     1.08800
C2430       C  0.72455527  0.71302426  0.60318494     1.08900
C2431       C  0.77321642  0.82853750  0.98385898     1.08800
O2432       O  0.75397895  0.79002844  0.89523504    -0.80800
O2433       O  0.75912193  0.70918346  0.49038985    -0.80800
O2434       O  0.69048961  0.70639241  0.95127111    -0.80800
O2435       O  0.81011641  0.75413830  0.98747282    -0.80800
O2436       O  0.80830427  0.74262994  0.54641999    -0.80800
O2437       O  0.73558047  0.73180520  0.91872722    -0.80800
O2438       O  0.78941600  0.77898574  0.91933732    -0.80700
O2439       O  0.71057113  0.68412697  0.51511001    -0.80800
Co2440     Co  0.74351398  0.76923117  0.95036094     1.51500
Co2441     Co  0.77138944  0.74188872  0.53444941     1.51700
Co2442     Co  0.69929597  0.71703136  0.51935203     1.51600
Co2443     Co  0.78029897  0.79272235  0.49851680     1.51500
O2444       O  0.74250531  0.75188529  0.51131412    -1.42700
C2445       C  0.78002638  0.79140302  0.89070524     1.08800
C2446       C  0.73353371  0.68439266  0.49572111     1.08900
C2447       C  0.70777876  0.71069518  0.91802074     1.08900
C2448       C  0.82760992  0.76921004  0.53161415     1.08800
C2449       C  0.61580197  0.76464383  0.94714932    -0.14000
C2450       C  0.60487073  0.76716110  0.98894070     0.08200
C2451       C  0.62335858  0.77985014  0.52196995    -0.14000
C2452       C  0.64952599  0.77673125  0.52288787    -0.14000
C2453       C  0.66036978  0.76647489  0.98176033     0.08200
C2454       C  0.64352300  0.76423487  0.94358496    -0.14000
H2455       H  0.60174295  0.76042613  0.91795772     0.09500
H2456       H  0.61477874  0.78368803  0.55279825     0.12200
H2457       H  0.66076275  0.77845192  0.55418189     0.12200
H2458       H  0.65035055  0.75964407  0.91176380     0.12200
C2459       C  0.90861210  0.79631283  0.48942303    -0.14000
C2460       C  0.91947753  0.78440480  0.52213916     0.08200
C2461       C  0.89783154  0.76189922  0.97392294    -0.14000
C2462       C  0.86725464  0.75552397  0.97637667    -0.14000
C2463       C  0.86067679  0.77849143  0.53118509     0.08200
C2464       C  0.87937369  0.79366859  0.49420672    -0.14000
H2465       H  0.92196227  0.80621308  0.45956589     0.12200
H2466       H  0.90803411  0.76259167  0.94194916     0.12200
H2467       H  0.85449486  0.75230059  0.94604880     0.12200
H2468       H  0.87049615  0.80149511  0.46762178     0.12200
C2469       C  0.80218742  0.91323016  0.97146067    -0.14000
C2470       C  0.77785039  0.91538797  0.99148584     0.08200
C2471       C  0.75400336  0.88935802  0.01291832    -0.14000
C2472       C  0.75317027  0.86147561  0.01167645    -0.14000
C2473       C  0.77657740  0.85895464  0.98986413     0.08200
C2474       C  0.80165076  0.88525015  0.97099078    -0.14000
H2475       H  0.82075822  0.93267676  0.95449187     0.12200
H2476       H  0.73490894  0.89009357  0.02909106     0.12200
H2477       H  0.73381562  0.84169828  0.02676317     0.12200
H2478       H  0.81998085  0.88379642  0.95374602     0.12200
C2479       C  0.70015301  0.59940413  0.47991754    -0.14000
C2480       C  0.72688550  0.59775183  0.47052064     0.08200
C2481       C  0.75529364  0.62506312  0.46491748    -0.14000
C2482       C  0.75722725  0.65333126  0.47071853    -0.14000
C2483       C  0.73082952  0.65493429  0.48275981     0.08200
C2484       C  0.70214184  0.62766035  0.48611309    -0.14000
H2485       H  0.67802578  0.57888071  0.48471178     0.12200
H2486       H  0.77634857  0.62459638  0.45761589     0.12200
H2487       H  0.77964723  0.67382694  0.46777265     0.12200
H2488       H  0.68126575  0.62804609  0.49514126     0.12200
C2489       C  0.61494056  0.91653800  0.00277816    -0.14000
C2490       C  0.64265761  0.91559342  0.00303183     0.08200
C2491       C  0.64146212  0.88772168  0.00920307    -0.14000
C2492       C  0.61313868  0.86095498  0.01396366    -0.14000
C2493       C  0.58520903  0.86135950  0.01329067     0.08200
C2494       C  0.58632449  0.88954447  0.00841581    -0.14000
H2495       H  0.61537164  0.93791468  0.99781254     0.12200
H2496       H  0.66245544  0.88635201  0.00902357     0.12200
H2497       H  0.61310319  0.83972230  0.01753153     0.12200
H2498       H  0.56515344  0.89052457  0.00735951     0.12200
C2499       C  0.86537037  0.61741787  0.46274005    -0.14000
C2500       C  0.86364689  0.59064880  0.47896995     0.08200
C2501       C  0.89006627  0.59261978  0.49890937    -0.14000
C2502       C  0.91675100  0.62115996  0.50578964    -0.14000
C2503       C  0.91744151  0.64812127  0.49249568     0.08200
C2504       C  0.89192483  0.64569055  0.46915449    -0.14000
H2505       H  0.84561720  0.61668136  0.44680271     0.12200
H2506       H  0.88938362  0.57232335  0.51180756     0.12200
H2507       H  0.93603720  0.62220145  0.52353269     0.12200
H2508       H  0.89173638  0.66586126  0.45772154     0.12200
C2509       C  0.79784371  0.51575667  0.65147413    -0.17100
C2510       C  0.80219294  0.50728520  0.61127694    -0.32200
H2511       H  0.78284586  0.52542251  0.65575801     0.12000
H2512       H  0.81623776  0.49651197  0.60782960     0.12500
C2513       C  0.81268878  0.51248084  0.81785300    -0.17100
C2514       C  0.78326228  0.98376113  0.83536663    -0.32200
H2515       H  0.83149688  0.52321821  0.84121768     0.12000
H2516       H  0.76463794  0.96716126  0.81487270     0.12500
C2517       C  0.81549404  0.81995368  0.65019836    -0.17100
C2518       C  0.78705828  0.80849610  0.63316358    -0.32200
H2519       H  0.83446162  0.82195821  0.62999389     0.12000
H2520       H  0.76816837  0.80793489  0.65179828     0.12500
C2521       C  0.79001032  0.80193390  0.81172852    -0.17100
C2522       C  0.80000002  0.80669496  0.85329128    -0.32200
H2523       H  0.76594619  0.78557431  0.80418247     0.12000
H2524       H  0.82445101  0.82185733  0.86030520     0.12500
C2525       C  0.85888153  0.91651155  0.69916578    -0.14000
C2526       C  0.85528238  0.90381768  0.74149336     0.08200
C2527       C  0.85636538  0.92104181  0.77848163    -0.14000
C2528       C  0.85625804  0.94826983  0.77295515    -0.14000
C2529       C  0.85573583  0.95895365  0.73039443     0.08200
C2530       C  0.85942748  0.94407011  0.69367902    -0.14000
H2531       H  0.85846678  0.90401374  0.67002378     0.12200
H2532       H  0.85482125  0.91230871  0.81166754     0.12200
H2533       H  0.85377205  0.95933472  0.80195312     0.12200
H2534       H  0.86031824  0.95247023  0.66045055     0.12200
C2535       C  0.01302427  0.81735175  0.67064938    -0.17100
C2536       C  0.99487940  0.78925838  0.65551596    -0.32200
H2537       H  0.02648982  0.83610391  0.64751409     0.12000
H2538       H  0.52630639  0.82692390  0.65041835     0.12500
C2539       C  0.51456937  0.80807550  0.84284060    -0.17100
C2540       C  0.50192081  0.80598010  0.88311548    -0.32200
H2541       H  0.02061487  0.78740545  0.83069528     0.12000
H2542       H  0.48401491  0.81171306  0.88829794     0.12500
C2543       C  0.93922360  0.84835978  0.79161164    -0.14000
C2544       C  0.95315425  0.84343171  0.75468101     0.08200
C2545       C  0.93908567  0.83905365  0.71306895    -0.14000
C2546       C  0.91035503  0.83768694  0.70918187    -0.14000
C2547       C  0.89560901  0.84052908  0.74695586     0.08200
C2548       C  0.91074865  0.84686891  0.78778113    -0.14000
H2549       H  0.94991885  0.85243709  0.82375314     0.12200
H2550       H  0.94945089  0.83510011  0.68416420     0.12200
H2551       H  0.89899528  0.83292279  0.67738078     0.12200
H2552       H  0.90009768  0.84989669  0.81710935     0.12200
C2553       C  0.70257672  0.51663115  0.64580125    -0.17100
C2554       C  0.68891996  0.50867911  0.60603936    -0.32200
H2555       H  0.72750176  0.52775053  0.64733649     0.12000
H2556       H  0.67822862  0.99514763  0.62072903     0.12500
C2557       C  0.69585149  0.49916983  0.81057374    -0.17100
C2558       C  0.68519713  0.50141227  0.85051385    -0.32200
H2559       H  0.71504819  0.49473862  0.80827885     0.12000
H2560       H  0.72106695  0.02458821  0.84055955     0.12500
C2561       C  0.60904009  0.91040884  0.69892995    -0.14000
C2562       C  0.61180476  0.93891919  0.70676626     0.08200
C2563       C  0.58491856  0.94045657  0.71522235    -0.14000
C2564       C  0.55652258  0.91364204  0.72261040    -0.14000
C2565       C  0.55501499  0.88532112  0.72127585     0.08200
C2566       C  0.58085593  0.88374644  0.70664183    -0.14000
H2567       H  0.62954632  0.90874495  0.69288741     0.12200
H2568       H  0.58665259  0.96218773  0.72207937     0.12200
H2569       H  0.53676701  0.91516656  0.73404581     0.12200
H2570       H  0.58002081  0.86199457  0.70548660     0.12200
C2571       C  0.71884013  0.70430055  0.65038685    -0.17100
C2572       C  0.69157559  0.69702999  0.66926781    -0.32200
H2573       H  0.73657127  0.70291157  0.66935545     0.12000
H2574       H  0.67310620  0.69608198  0.64911732     0.12500
C2575       C  0.70618590  0.70243162  0.83675734    -0.17100
C2576       C  0.69383266  0.69302844  0.87752781    -0.32200
H2577       H  0.72922559  0.72222784  0.83275409     0.12000
H2578       H  0.67044548  0.67362189  0.88057288     0.12500
C2579       C  0.63729308  0.58592873  0.77773103    -0.14000
C2580       C  0.64813128  0.60855831  0.74487072     0.08200
C2581       C  0.65737201  0.60290635  0.70366292    -0.14000
C2582       C  0.65926441  0.57645118  0.69746760    -0.14000
C2583       C  0.65179246  0.55559721  0.73246123     0.08200
C2584       C  0.63891983  0.55964514  0.77143476    -0.14000
H2585       H  0.62989005  0.58970886  0.80951392     0.12200
H2586       H  0.66596397  0.62021401  0.67789432     0.12200
H2587       H  0.66910652  0.57368811  0.66709581     0.12200
H2588       H  0.63235853  0.54344348  0.79868399     0.12200
C2589       C  0.99982994  0.69720172  0.67867688    -0.17100
C2590       C  0.97857042  0.70326288  0.66151264    -0.32200
H2591       H  0.01742230  0.69743686  0.65711857     0.12000
H2592       H  0.51801206  0.70162479  0.65453746     0.12500
C2593       C  0.49177115  0.70634164  0.85327736    -0.17100
C2594       C  0.49828831  0.69623164  0.89070247    -0.32200
H2595       H  0.48643941  0.72465564  0.85415962     0.12000
H2596       H  0.50412147  0.67827631  0.88904074     0.12500
C2597       C  0.55624955  0.65869036  0.73873016    -0.14000
C2598       C  0.55797983  0.68618450  0.75094684     0.08200
C2599       C  0.58706410  0.71164157  0.75959173    -0.14000
C2600       C  0.61356931  0.70904248  0.75975339    -0.14000
C2601       C  0.61158116  0.68092529  0.75137881     0.08200
C2602       C  0.58297067  0.65606656  0.73888548    -0.14000
H2603       H  0.53394806  0.63864803  0.73216004     0.12200
H2604       H  0.58905384  0.73319574  0.76836626     0.12200
H2605       H  0.63555360  0.72881509  0.76823660     0.12200
H2606       H  0.58095209  0.63423335  0.73210465     0.12200
C2607       C  0.94575718  0.60141392  0.70940530    -0.14000
C2608       C  0.95461523  0.60837021  0.75368780     0.08200
C2609       C  0.93711936  0.58696871  0.78671015    -0.14000
C2610       C  0.90919856  0.56102680  0.77633415    -0.14000
C2611       C  0.89854906  0.55552672  0.73253272     0.08200
C2612       C  0.91809132  0.57503560  0.69883292    -0.14000
H2613       H  0.95880200  0.61738506  0.68311307     0.12200
H2614       H  0.94386002  0.59132046  0.82098444     0.12200
H2615       H  0.89513415  0.54682270  0.80347924     0.12200
H2616       H  0.91128445  0.57099215  0.66462335     0.12200
loop_ 
_geom_bond_atom_site_label_1 
_geom_bond_atom_site_label_2 
_geom_bond_distance 
_geom_bond_site_symmetry_2 
_ccdc_geom_bond_type 
C1            C7   1.543       .  S
C1            C5   1.531       .  S
C1         C1310   1.525       .  S
C1         C1612   1.513       .  S
C2         C1309   1.529   1_455  S
C2            H9   1.086       .  S
C2            C3   1.366       .  D
C3            C4   1.545   1_455  S
C3          C309   1.486       .  S
C4            C6   1.552       .  S
C4         C1316   1.545       .  S
C4           H10   1.108       .  S
C5           H11   1.088       .  S
C5         C1314   1.366       .  D
C6         C1313   1.359       .  D
C6         C1608   1.482       .  S
C7           H12   1.085       .  S
C7            C8   1.374       .  D
C8         C1312   1.547       .  S
C8          C319   1.496       .  S
C13          C14   1.527       .  S
C13          C19   1.530       .  S
C13          C17   1.548       .  S
C13         C286   1.521       .  S
C14          H21   1.086       .  S
C14          C15   1.366       .  D
C15          C16   1.548       .  S
C15         C291   1.486       .  S
C16          C20   1.545       .  S
C16          C18   1.536       .  S
C16          H22   1.111       .  S
C17          H23   1.085       .  S
C17          C18   1.374       .  D
C18         C283   1.480       .  S
C19          H24   1.086       .  S
C19          C20   1.365       .  D
C20         C312   1.489       .  S
C25          C31   1.535   1_565  S
C25          C29   1.528   1_565  S
C25         C268   1.510       .  S
C25         C680   1.525       .  S
C26         C679   1.531       .  S
C26          H33   1.088       .  S
C26          C27   1.363       .  D
C27         C682   1.539       .  S
C27         C273   1.481       .  S
C28          C32   1.546       .  S
C28          C30   1.552       .  S
C28         C681   1.540   1_545  S
C28          H34   1.110       .  S
C29          H35   1.087       .  S
C29          C30   1.364       .  D
C30         C264   1.477       .  S
C31          H36   1.087       .  S
C31          C32   1.370       .  D
C32         C294   1.493       .  S
C37          C43   1.528   1_655  S
C37          C41   1.539       .  S
C37         C250   1.511       .  S
C37        C1346   1.520       .  S
C38        C1345   1.526       .  S
C38          H45   1.086       .  S
C38          C39   1.365       .  D
C39          C40   1.552       .  S
C39         C255   1.488       .  S
C40          C42   1.556       .  S
C40        C1352   1.544       .  S
C40          H46   1.109       .  S
C41          H47   1.081   1_655  S
C41        C1350   1.373       .  D
C42        C1349   1.364       .  D
C42         C246   1.480       .  S
C43          H48   1.087       .  S
C43          C44   1.366       .  D
C44        C1348   1.546   1_455  S
C44         C276   1.486       .  S
C49          C50   1.528       .  S
C49          C55   1.532       .  S
C49          C53   1.534       .  S
C49         C232   1.509       .  S
C50          H57   1.085       .  S
C50          C51   1.366       .  D
C51          C52   1.547       .  S
C51         C237   1.490       .  S
C52          C56   1.541       .  S
C52          C54   1.539       .  S
C52          H58   1.109       .  S
C53          H59   1.088       .  S
C53          C54   1.368       .  D
C54         C228   1.480       .  S
C55          H60   1.086       .  S
C55          C56   1.368       .  D
C56         C258   1.483       .  S
C61          C67   1.534       .  S
C61          C65   1.543       .  S
C61         C220   1.515       .  S
C61         C716   1.521   1_545  S
C62         C715   1.542       .  S
C62          H69   1.083       .  S
C62          C63   1.369       .  D
C63         C718   1.547       .  S
C63         C240   1.492       .  S
C64          C68   1.546       .  S
C64          C66   1.541       .  S
C64         C717   1.546   1_545  S
C64          H70   1.108       .  S
C65          H71   1.086   1_545  S
C65          C66   1.373       .  D
C66         C224   1.486       .  S
C67          H72   1.084       .  S
C67          C68   1.371       .  D
C68         C322   1.498       .  S
O73          C81   1.266       .  A
O73         Co93   2.015       .  S
O74          C82   1.269       .  A
O74         Co94   2.016       .  S
O75          C83   1.234   1_556  A
O75         Co95   1.915   1_545  S
O76         C738   1.264   1_545  A
O76         Co96   1.973       .  S
O77          C83   1.284       .  A
O77         Co94   2.076       .  S
O78          C84   1.266       .  A
O78         Co93   2.011       .  S
O79         C409   1.257       .  A
O79         Co96   1.963       .  S
O80         C735   1.261   1_545  A
O80        Co422   1.955       .  S
C81         C923   1.480       .  S
C81         O734   1.260       .  A
C82         O406   1.259   1_554  A
C82         C211   1.484       .  S
C83         C191   1.475   1_554  S
C84         C225   1.475       .  S
C84         O730   1.256       .  A
O85          C98   1.255       .  A
O85         Co93   1.948       .  S
O86          C99   1.271       .  A
O86         Co94   1.899       .  S
O87         C427   1.276   1_556  A
O87        Co749   1.910       .  S
O88         C101   1.276       .  A
O88        Co423   2.020   1_554  S
O89         C101   1.267   1_565  A
O89         Co94   1.974   1_565  S
O90         C100   1.252       .  A
O90         Co93   1.930       .  S
O91          C98   1.281       .  A
O91        Co750   2.057       .  S
O92          C99   1.292   1_565  A
O92         Co95   2.072   1_554  S
Co93        O751   2.068       .  S
Co94        O424   2.003   1_544  S
Co95        O407   1.955   1_565  S
Co95        O741   1.935       .  S
Co95        O424   2.037       .  S
Co96        O415   2.030       .  S
Co96        O745   2.045   1_545  S
Co96         O97   2.051       .  S
O97        Co747   2.051   1_545  S
O97        Co421   2.007       .  S
O97        Co422   2.039       .  S
C98         C181   1.496       .  S
C99         C265   1.470       .  S
C100        O414   1.272       .  A
C100        C201   1.469       .  S
C101        C221   1.474       .  S
O102        C110   1.264       .  A
O102       Co122   1.965   1_655  S
O103        C111   1.273       .  A
O103       Co123   2.039       .  S
O104        C112   1.269   1_556  A
O104       Co124   1.906       .  S
O105        C113   1.302   1_655  A
O105       Co452   2.105   1_655  S
O106        C112   1.296       .  A
O106       Co123   2.108       .  S
O107        C113   1.261       .  A
O107       Co122   1.879       .  S
O108        C438   1.254       .  A
O108      Co1760   1.963       .  S
O109       C1418   1.263       .  A
O109       Co451   1.959       .  S
C110        C305   1.475       .  S
C110       O1417   1.274   1_655  A
C111        O435   1.259   1_554  A
C111        C171   1.488       .  S
C112        C214   1.491       .  S
C113        C251   1.468       .  S
O114        C127   1.283       .  A
O114       Co122   2.064       .  S
O115        C128   1.274       .  A
O115       Co123   1.900       .  S
O116        C456   1.270       .  A
O116      Co1432   2.053   1_455  S
O117       C1438   1.281       .  A
O117       Co125   2.040   1_554  S
O118        C130   1.269       .  A
O118       Co123   1.963       .  S
O119        C129   1.264       .  A
O119       Co122   2.013       .  S
O120        C127   1.232       .  A
O120       Co452   1.911       .  S
O121        C128   1.296       .  A
O121       Co124   2.099   1_554  S
Co122      O1761   1.976   1_455  S
Co123       O126   2.005   1_554  S
Co124       O436   1.955       .  S
Co124      O1424   2.054       .  S
Co124       O126   2.008       .  S
Co125       O432   1.980       .  S
Co125      O1743   1.969       .  S
Co125       O447   2.029   1_655  S
Co125      O1434   2.026   1_656  S
O126      Co1757   2.020       .  S
O126      Co1433   2.029       .  S
C127        C204   1.461       .  S
C128        C301   1.480       .  S
C129        O443   1.258       .  A
C129        C161   1.490       .  S
C130        C247   1.478       .  S
C130       O1425   1.274       .  A
O131        C139   1.271       .  A
O131       Co151   2.025       .  S
O132        C140   1.278       .  A
O132       Co152   2.023       .  S
O133        C141   1.263       .  A
O133       Co153   1.964       .  S
O134        C142   1.266       .  A
O134       Co481   1.900       .  S
O135        C141   1.274       .  A
O135       Co152   2.028       .  S
O136        C142   1.302       .  A
O136       Co151   2.117       .  S
O137        C140   1.270       .  A
O137       Co154   1.966       .  S
O138        C466   1.257       .  A
O138       Co153   1.973       .  S
C139        O465   1.266       .  A
C139        C164   1.495       .  S
C140        C229   1.470       .  S
C141        C282   1.484       .  S
C142        C184   1.491       .  S
O143        C156   1.268       .  A
O143       Co151   1.885       .  S
O144        C157   1.252       .  A
O144       Co152   1.941       .  S
O145        C158   1.275       .  A
O145       Co480   2.022       .  S
O146        C486   1.262       .  A
O146       Co481   2.037       .  S
O147        C159   1.248       .  A
O147       Co152   1.963       .  S
O148        C158   1.265       .  A
O148       Co151   1.976       .  S
O149        C156   1.297       .  A
O149       Co481   2.106       .  S
O150        C157   1.274       .  A
O150       Co153   2.043       .  S
Co151       O482   2.000       .  S
Co152       O155   2.009       .  S
Co153       O472   2.032   1_554  S
Co153       O155   2.049       .  S
Co154       O461   1.891       .  S
Co154       O473   2.038       .  S
Co154       O476   2.099   1_554  S
Co154       O155   2.022       .  S
O155       Co478   2.017   1_554  S
C156        C233   1.468       .  S
C157        C194   1.482       .  S
C158        C287   1.480       .  S
C159        O473   1.264       .  A
C159        C174   1.480       .  S
C160        C161   1.407       .  A
C160        C165   1.408       .  A
C160        H166   1.086       .  S
C161        C489   1.407       .  A
C162        C163   1.403       .  A
C162        C488   1.405       .  A
C162        H167   1.085       .  S
C163        C491   1.408       .  A
C163        H168   1.082       .  S
C164        C165   1.410       .  A
C164        C490   1.406       .  A
C165        H169   1.079       .  S
C170        C171   1.408       .  A
C170        C175   1.408       .  A
C170        H176   1.083       .  S
C171        C499   1.406   1_554  A
C172        C173   1.393       .  A
C172        C498   1.402       .  A
C172        H177   1.085       .  S
C173        C501   1.405       .  A
C173        H178   1.082       .  S
C174        C175   1.406       .  A
C174        C500   1.404   1_554  A
C175        H179   1.084       .  S
C180        C181   1.404       .  A
C180        C185   1.412       .  A
C180        H186   1.081       .  S
C181        C182   1.414       .  A
C182        C183   1.395       .  A
C182        H187   1.084       .  S
C183        C184   1.399       .  A
C183        H188   1.083       .  S
C184        C185   1.414       .  A
C185        H189   1.082       .  S
C190        C191   1.417   1_554  A
C190        C195   1.405       .  A
C190        H196   1.085       .  S
C191        C192   1.388       .  A
C192        C193   1.386       .  A
C192        H197   1.087       .  S
C193        C194   1.411   1_556  A
C193        H198   1.078       .  S
C194        C195   1.404       .  A
C195        H199   1.084       .  S
C200        C201   1.401       .  A
C200        C205   1.402       .  A
C200        H206   1.083       .  S
C201        C202   1.409       .  A
C202        C203   1.377       .  A
C202        H207   1.083       .  S
C203        C204   1.384       .  A
C203        H208   1.083       .  S
C204        C205   1.416       .  A
C205        H209   1.084       .  S
C210        C211   1.403       .  A
C210        C215   1.406       .  A
C210        H216   1.083       .  S
C211        C212   1.408   1_554  A
C212        C213   1.401       .  A
C212        H217   1.081       .  S
C213        C214   1.404   1_556  A
C213        H218   1.086       .  S
C214        C215   1.410       .  A
C215        H219   1.081       .  S
C220        H222   1.087   1_545  S
C220        C221   1.351       .  D
C221        H223   1.089       .  S
C224        H226   1.085       .  S
C224        C879   1.346   1_545  D
C225        H227   1.085       .  S
C225        C878   1.341       .  D
C228        H230   1.084       .  S
C228        C229   1.342       .  D
C229        H231   1.084       .  S
C232        H234   1.088       .  S
C232        C233   1.344       .  D
C233        H235   1.087       .  S
C236        C237   1.408       .  A
C236        C241   1.396       .  A
C236        H242   1.086       .  S
C237        C238   1.403       .  A
C238        C239   1.397       .  A
C238        H243   1.077       .  S
C239        C240   1.409       .  A
C239        H244   1.086       .  S
C240        C241   1.404       .  A
C241        H245   1.078       .  S
C246        H248   1.096       .  S
C246        C247   1.339       .  D
C247       H1557   1.093       .  S
H249       C1555   1.077       .  S
C250       H1560   1.092       .  S
C250        C251   1.337   1_655  D
C251        H253   1.092       .  S
H252       C1558   1.088       .  S
C254        C255   1.407       .  A
C254        C259   1.392       .  A
C254        H260   1.083       .  S
C255        C256   1.405       .  A
C256        C257   1.409       .  A
C256        H261   1.083       .  S
C257        C258   1.408       .  A
C257        H262   1.083       .  S
C258        C259   1.400       .  A
C259        H263   1.084       .  S
C264        H266   1.088       .  S
C264        C265   1.336       .  D
C265        H921   1.088   1_545  S
H267        C919   1.088       .  S
C268        H270   1.084       .  S
C268        C269   1.341   1_565  D
C269        H925   1.083       .  S
C269        C735   1.471   1_545  S
H271        C923   1.077       .  S
C272        C273   1.404       .  A
C272        C277   1.406       .  A
C272        H278   1.082       .  S
C273        C274   1.402       .  A
C274        C275   1.395       .  A
C274        H279   1.085       .  S
C275        C276   1.405       .  A
C275        H280   1.082       .  S
C276        C277   1.406       .  A
C277        H281   1.084       .  S
C282        H284   1.086       .  S
C282        C283   1.344       .  D
C283        H285   1.086       .  S
C286        H288   1.086       .  S
C286        C287   1.352       .  D
C287        H289   1.087       .  S
C290        C291   1.403       .  A
C290        C295   1.397       .  A
C290        H296   1.082       .  S
C291        C292   1.406       .  A
C292        C293   1.407       .  A
C292        H297   1.084       .  S
C293        C294   1.407       .  A
C293        H298   1.081       .  S
C294        C295   1.406       .  A
C295        H299   1.083       .  S
C300        H302   1.090       .  S
C300        C301   1.341       .  D
C300       C1314   1.488       .  S
C301       H1611   1.088       .  S
H303       C1609   1.090   1_455  S
C304       C1309   1.504       .  S
C304        H306   1.080       .  S
C304        C305   1.345       .  D
C305        H307   1.078       .  S
C308        C309   1.407       .  A
C308        C313   1.408       .  A
C308        H314   1.083       .  S
C309        C310   1.402       .  A
C310        C311   1.395       .  A
C310        H315   1.082       .  S
C311        C312   1.406       .  A
C311        H316   1.085       .  S
C312        C313   1.405       .  A
C313        H317   1.080       .  S
C318        C319   1.405       .  A
C318        C323   1.396       .  A
C318        H324   1.080       .  S
C319        C320   1.408       .  A
C320        C321   1.404       .  A
C320        H325   1.082       .  S
C321        C322   1.408       .  A
C321        H326   1.081       .  S
C322        C323   1.407       .  A
C323        H327   1.082       .  S
C328       C1637   1.522       .  S
C328        C334   1.536       .  S
C328        C332   1.527       .  S
C328       C1939   1.504       .  S
C329       C1636   1.530   1_455  S
C329        H336   1.088       .  S
C329        C330   1.360       .  D
C330        C331   1.536       .  S
C330        C636   1.480       .  S
C331       C1643   1.542   1_455  S
C331        C333   1.540   1_455  S
C331        H337   1.110       .  S
C332        H338   1.089       .  S
C332       C1641   1.364       .  D
C333       C1640   1.366       .  D
C333       C1935   1.470       .  S
C334        H339   1.085       .  S
C334        C335   1.370       .  D
C335       C1639   1.552       .  S
C335        C646   1.497       .  S
C340        C341   1.527       .  S
C340        C346   1.527       .  S
C340        C344   1.550       .  S
C340        C613   1.519       .  S
C341        H348   1.087       .  S
C341        C342   1.366       .  D
C342        C343   1.543       .  S
C342        C618   1.477       .  S
C343        C347   1.540       .  S
C343        C345   1.537       .  S
C343        H349   1.111       .  S
C344        H350   1.086       .  S
C344        C345   1.376       .  D
C345        C610   1.487       .  S
C346        H351   1.087       .  S
C346        C347   1.362       .  D
C347        C639   1.480       .  S
C352       C1007   1.529   1_545  S
C352        C358   1.529       .  S
C352        C356   1.523       .  S
C352        C595   1.500       .  S
C353       C1006   1.525       .  S
C353        H360   1.087       .  S
C353        C354   1.364       .  D
C354       C1009   1.550       .  S
C354        C600   1.483       .  S
C355       C1008   1.541   1_545  S
C355        C359   1.541       .  S
C355        C357   1.550       .  S
C355        H361   1.110       .  S
C356        H362   1.088       .  S
C356        C357   1.362       .  D
C357        C591   1.469       .  S
C358        H363   1.092       .  S
C358        C359   1.364       .  D
C359        C621   1.480       .  S
C364       C1673   1.525       .  S
C364        C370   1.540   1_655  S
C364        C368   1.538       .  S
C364        C577   1.523       .  S
C365       C1672   1.520       .  S
C365        H372   1.086       .  S
C365        C366   1.355       .  D
C366        C367   1.546       .  S
C366        C582   1.475       .  S
C367       C1679   1.543       .  S
C367        C369   1.552       .  S
C367        H373   1.108       .  S
C368        H374   1.086       .  S
C368       C1677   1.370       .  D
C369       C1676   1.371       .  D
C369        C573   1.487       .  S
C370        H375   1.082       .  S
C370        C371   1.366       .  D
C371       C1675   1.540   1_455  S
C371        C603   1.483       .  S
C376        C377   1.532       .  S
C376        C382   1.540       .  S
C376        C380   1.535       .  S
C376        C559   1.512       .  S
C377        H384   1.086       .  S
C377        C378   1.366       .  D
C378        C379   1.535       .  S
C378        C564   1.480       .  S
C379        C383   1.529       .  S
C379        C381   1.531       .  S
C379        H385   1.109       .  S
C380        H386   1.085       .  S
C380        C381   1.366       .  D
C381        C555   1.467       .  S
C382        H387   1.086       .  S
C382        C383   1.370       .  D
C383        C585   1.475       .  S
C388       C1043   1.523   1_545  S
C388        C394   1.531       .  S
C388        C392   1.545       .  S
C388        C547   1.518       .  S
C389       C1042   1.527       .  S
C389        H396   1.087       .  S
C389        C390   1.360       .  D
C390       C1045   1.535       .  S
C390        C567   1.472       .  S
C391       C1044   1.544   1_545  S
C391        C395   1.550       .  S
C391        C393   1.549       .  S
C391        H397   1.108       .  S
C392        H398   1.084   1_545  S
C392        C393   1.375       .  D
C393        C551   1.494       .  S
C394        H399   1.085       .  S
C394        C395   1.367       .  D
C395        C649   1.501       .  S
O400        C408   1.248       .  A
O400       Co420   1.980       .  S
O401        C409   1.269       .  A
O401       Co421   2.016       .  S
O402        C410   1.232       .  A
O402       Co422   1.917       .  S
O403       C1065   1.262   1_545  A
O403       Co423   1.959       .  S
O404        C410   1.285       .  A
O404       Co421   2.078       .  S
O405        C411   1.253       .  A
O405       Co420   1.987       .  S
O406       Co423   1.966       .  S
O407       C1062   1.260   1_545  A
C408       C1250   1.460       .  S
C408       O1061   1.246       .  A
C409        C538   1.483       .  S
C410        C518   1.474       .  S
C411        C552   1.474       .  S
C411       O1057   1.252       .  A
O412        C425   1.297       .  A
O412       Co420   2.073       .  S
O413        C426   1.270       .  A
O413       Co421   1.894       .  S
O414      Co1076   2.028       .  S
O415        C428   1.278       .  A
O416        C428   1.264       .  A
O416       Co421   1.974       .  S
O417        C427   1.299   1_556  A
O417       Co420   2.065       .  S
O418        C425   1.276       .  A
O418      Co1077   1.918       .  S
O419        C426   1.292       .  A
O419       Co422   2.077       .  S
Co420      O1078   2.240       .  S
Co422      O1068   1.923   1_545  S
Co423      O1072   2.054   1_545  S
Co423       O424   2.060   1_545  S
O424      Co1074   2.053       .  S
C425        C508   1.491       .  S
C426        C592   1.468       .  S
C427        C528   1.476       .  S
C428        C548   1.477       .  S
O429        C437   1.281       .  A
O429       Co449   2.039       .  S
O430        C438   1.267       .  A
O430       Co450   2.032       .  S
O431        C439   1.270       .  A
O431       Co451   1.911       .  S
O432        C440   1.265   1_655  A
O433        C439   1.293       .  A
O433       Co450   2.098       .  S
O434        C440   1.268       .  A
O434       Co449   2.010       .  S
O435      Co1433   1.969       .  S
O436       C1745   1.266       .  A
C437        C632   1.456       .  S
C437       O1744   1.261   1_455  A
C438        C498   1.475       .  S
C439        C541   1.487       .  S
C440        C578   1.477       .  S
O441        C454   1.263       .  A
O441       Co449   1.961   1_554  S
O442        C455   1.270       .  A
O442       Co450   1.890       .  S
O443      Co1759   1.976       .  S
O444       C1765   1.268   1_455  A
O444       Co452   1.975       .  S
O445        C457   1.269       .  A
O445       Co450   1.964       .  S
O446        C456   1.253       .  A
O446       Co449   1.969   1_554  S
O447        C454   1.275   1_556  A
O448        C455   1.295       .  A
O448       Co451   2.101       .  S
Co449      O1434   2.018   1_556  S
Co450       O453   2.008       .  S
Co451      O1751   2.054       .  S
Co451       O453   2.009       .  S
Co452      O1416   1.922   1_455  S
Co452      O1761   2.045   1_455  S
O453      Co1430   2.022       .  S
O453      Co1760   2.024       .  S
C454        C531   1.483       .  S
C455        C628   1.477       .  S
C456        C488   1.492       .  S
C457        C574   1.475       .  S
C457       O1752   1.277       .  A
O458        C466   1.274   1_556  A
O458       Co478   2.051       .  S
O459        C467   1.278       .  A
O459       Co479   2.019       .  S
O460        C468   1.266       .  A
O460       Co480   1.977       .  S
O461        C469   1.266       .  A
O462        C468   1.273       .  A
O462       Co479   2.026       .  S
O463        C469   1.303       .  A
O463       Co478   2.119   1_554  S
O464        C467   1.270       .  A
O464       Co481   1.959       .  S
O465       Co480   1.988       .  S
C466        C491   1.496       .  S
C467        C556   1.464       .  S
C468        C609   1.487       .  S
C469        C511   1.491       .  S
O470        C483   1.270       .  A
O470       Co478   1.896       .  S
O471        C484   1.249       .  A
O471       Co479   1.928       .  S
O472        C485   1.277       .  A
O474        C486   1.245       .  A
O474       Co479   1.954       .  S
O475        C485   1.262       .  A
O475       Co478   1.969       .  S
O476        C483   1.295       .  A
O477        C484   1.277       .  A
O477       Co480   2.057       .  S
Co479       O482   1.997       .  S
Co480       O482   2.056       .  S
Co481       O482   2.028       .  S
C483        C560   1.472       .  S
C484        C521   1.483       .  S
C485        C614   1.479       .  S
C486        C501   1.479       .  S
C487        C488   1.410   1_556  A
C487        C492   1.413       .  A
C487        H493   1.083       .  S
C489        C490   1.400       .  A
C489        H494   1.078       .  S
C490        H495   1.087       .  S
C491        C492   1.409   1_554  A
C492        H496   1.083       .  S
C497        C498   1.407       .  A
C497        C502   1.407       .  A
C497        H503   1.078       .  S
C499        C500   1.399       .  A
C499        H504   1.084       .  S
C500        H505   1.083       .  S
C501        C502   1.406       .  A
C502        H506   1.088       .  S
C507        C508   1.404   1_554  A
C507        C512   1.403       .  A
C507        H513   1.083       .  S
C508        C509   1.410       .  A
C509        C510   1.403   1_556  A
C509        H514   1.087       .  S
C510        C511   1.404       .  A
C510        H515   1.080       .  S
C511        C512   1.410       .  A
C512        H516   1.084       .  S
C517        C518   1.418       .  A
C517        C522   1.406       .  A
C517        H523   1.084       .  S
C518        C519   1.386       .  A
C519        C520   1.386       .  A
C519        H524   1.085       .  S
C520        C521   1.413       .  A
C520        H525   1.081       .  S
C521        C522   1.403       .  A
C522        H526   1.084       .  S
C527        C528   1.405   1_556  A
C527        C532   1.404       .  A
C527        H533   1.082       .  S
C528        C529   1.403       .  A
C529        C530   1.393       .  A
C529        H534   1.084       .  S
C530        C531   1.406       .  A
C530        H535   1.082       .  S
C531        C532   1.408   1_554  A
C532        H536   1.083       .  S
C537        C538   1.402       .  A
C537        C542   1.404       .  A
C537        H543   1.085       .  S
C538        C539   1.410       .  A
C539        C540   1.401       .  A
C539        H544   1.081       .  S
C540        C541   1.403       .  A
C540        H545   1.086       .  S
C541        C542   1.410       .  A
C542        H546   1.081       .  S
C547        H549   1.088   1_545  S
C547        C548   1.355       .  D
C548        H550   1.090       .  S
C551        H553   1.084       .  S
C551       C1206   1.355   1_545  D
C552        H554   1.090       .  S
C552       C1205   1.338       .  D
C555        H557   1.087       .  S
C555        C556   1.337       .  D
C556        H558   1.088       .  S
C559        H561   1.084       .  S
C559        C560   1.344       .  D
C560        H562   1.083       .  S
C563        C564   1.404       .  A
C563        C568   1.390       .  A
C563        H569   1.082       .  S
C564        C565   1.407       .  A
C565        C566   1.394       .  A
C565        H570   1.080       .  S
C566        C567   1.400       .  A
C566        H571   1.083       .  S
C567        C568   1.403       .  A
C568        H572   1.082       .  S
C573        H575   1.095       .  S
C573        C574   1.344       .  D
C574       H1884   1.092       .  S
H576       C1882   1.086   1_455  S
C577       H1887   1.091       .  S
C577        C578   1.346   1_655  D
C578        H580   1.085       .  S
H579       C1885   1.086       .  S
C581        C582   1.402       .  A
C581        C586   1.402       .  A
C581        H587   1.086       .  S
C582        C583   1.406       .  A
C583        C584   1.395       .  A
C583        H588   1.084       .  S
C584        C585   1.399       .  A
C584        H589   1.085       .  S
C585        C586   1.405       .  A
C586        H590   1.082       .  S
C591        H593   1.084       .  S
C591        C592   1.336       .  D
C592       H1248   1.084   1_545  S
H594       C1246   1.079       .  S
C595        H597   1.086       .  S
C595        C596   1.336   1_545  D
C596       H1252   1.086       .  S
C596       C1062   1.447       .  S
H598       C1250   1.087       .  S
C599        C600   1.405       .  A
C599        C604   1.394       .  A
C599        H605   1.082       .  S
C600        C601   1.405       .  A
C601        C602   1.407       .  A
C601        H606   1.084       .  S
C602        C603   1.406       .  A
C602        H607   1.081       .  S
C603        C604   1.402       .  A
C604        H608   1.086       .  S
C609        H611   1.089       .  S
C609        C610   1.345       .  D
C610        H612   1.089       .  S
C613        H615   1.087       .  S
C613        C614   1.355       .  D
C614        H616   1.088       .  S
C617        C618   1.402       .  A
C617        C622   1.395       .  A
C617        H623   1.085       .  S
C618        C619   1.404       .  A
C619        C620   1.402       .  A
C619        H624   1.083       .  S
C620        C621   1.404       .  A
C620        H625   1.084       .  S
C621        C622   1.405       .  A
C622        H626   1.083       .  S
C627        H629   1.091       .  S
C627        C628   1.339       .  D
C627       C1641   1.480       .  S
C628       H1938   1.090       .  S
H630       C1936   1.091       .  S
C631       C1636   1.507       .  S
C631        H633   1.085       .  S
C631        C632   1.338   1_655  D
C632        H634   1.086       .  S
C635        C636   1.403       .  A
C635        C640   1.390       .  A
C635        H641   1.086       .  S
C636        C637   1.404       .  A
C637        C638   1.406       .  A
C637        H642   1.085       .  S
C638        C639   1.406       .  A
C638        H643   1.083       .  S
C639        C640   1.403       .  A
C640        H644   1.084       .  S
C645        C646   1.404       .  A
C645        C650   1.398       .  A
C645        H651   1.079       .  S
C646        C647   1.410       .  A
C647        C648   1.403       .  A
C647        H652   1.084       .  S
C648        C649   1.406       .  A
C648        H653   1.079       .  S
C649        C650   1.411       .  A
C650        H654   1.084       .  S
C655       C1964   1.524       .  S
C655        C661   1.526       .  S
C655        C659   1.544       .  S
C655       C2266   1.512       .  S
C656       C1963   1.530   1_455  S
C656        H663   1.088       .  S
C656        C657   1.363       .  D
C657        C658   1.538   1_455  S
C657        C963   1.479       .  S
C658       C1970   1.546       .  S
C658        C660   1.540   1_655  S
C658        H664   1.109   1_655  S
C659        H665   1.086       .  S
C659       C1968   1.374       .  D
C660       C1967   1.368       .  D
C660       C2262   1.480       .  S
C661        H666   1.088       .  S
C661        C662   1.364       .  D
C662       C1966   1.544       .  S
C662        C973   1.476       .  S
C667        C668   1.529       .  S
C667        C673   1.525       .  S
C667        C671   1.543       .  S
C667        C940   1.514       .  S
C668        H675   1.086       .  S
C668        C669   1.369       .  D
C669        C670   1.543       .  S
C669        C945   1.480       .  S
C670        C674   1.541       .  S
C670        C672   1.538       .  S
C670        H676   1.111       .  S
C671        H677   1.084       .  S
C671        C672   1.373       .  D
C672        C937   1.480       .  S
C673        H678   1.088       .  S
C673        C674   1.360       .  D
C674        C966   1.481       .  S
C679        C685   1.535       .  S
C679        C683   1.540       .  S
C679        C922   1.529       .  S
C680        H687   1.086       .  S
C680        C681   1.362       .  D
C681        C927   1.469       .  S
C682        C686   1.544       .  S
C682        C684   1.546       .  S
C682        H688   1.111       .  S
C683        H689   1.092       .  S
C683        C684   1.374       .  D
C684        C918   1.491       .  S
C685        H690   1.078       .  S
C685        C686   1.365       .  D
C686        C948   1.482       .  S
C691       C2000   1.529   1_455  S
C691        C697   1.534       .  S
C691        C695   1.543       .  S
C691        C904   1.517       .  S
C692       C1999   1.523       .  S
C692        H699   1.089       .  S
C692        C693   1.364       .  D
C693        C694   1.542       .  S
C693        C909   1.475       .  S
C694       C2006   1.532       .  S
C694        C696   1.537       .  S
C694        H700   1.111       .  S
C695        H701   1.082       .  S
C695       C2004   1.370       .  D
C696       C2003   1.366       .  D
C696        C900   1.472       .  S
C697        H702   1.088       .  S
C697        C698   1.365       .  D
C698       C2002   1.531   1_455  S
C698        C930   1.470       .  S
C703        C704   1.526       .  S
C703        C709   1.531       .  S
C703        C707   1.521       .  S
C703        C886   1.501       .  S
C704        H711   1.085       .  S
C704        C705   1.368       .  D
C705        C706   1.547       .  S
C705        C891   1.487       .  S
C706        C710   1.533       .  S
C706        C708   1.547       .  S
C706        H712   1.107       .  S
C707        H713   1.086       .  S
C707        C708   1.364       .  D
C708        C882   1.473       .  S
C709        H714   1.086       .  S
C709        C710   1.363       .  D
C710        C912   1.470       .  S
C715        C721   1.524       .  S
C715        C719   1.533       .  S
C715        C874   1.510       .  S
C716        H723   1.086       .  S
C716        C717   1.360       .  D
C717        C894   1.482       .  S
C718        C722   1.533       .  S
C718        C720   1.542       .  S
C718        H724   1.109       .  S
C719        H725   1.095       .  S
C719        C720   1.364       .  D
C720        C878   1.479       .  S
C721        H726   1.088       .  S
C721        C722   1.355       .  D
C722        C976   1.461       .  S
O727        C735   1.280       .  A
O727       Co747   2.041       .  S
O728        C736   1.261       .  A
O728       Co748   1.973   1_556  S
O729        C737   1.275   1_554  A
O729       Co749   2.024   1_554  S
O730       Co750   1.980       .  S
O731        C737   1.264       .  A
O731       Co748   1.968   1_556  S
O732        C738   1.270       .  A
O732       Co747   2.017       .  S
O733       C1063   1.279       .  A
O733       Co750   1.929       .  S
O734      Co1076   1.987       .  S
C736       O1060   1.274       .  A
C736        C865   1.490       .  S
C737        C845   1.483       .  S
C738        C879   1.483       .  S
O739        C752   1.256       .  A
O739       Co747   1.960       .  S
O740        C753   1.264       .  A
O740       Co748   2.010       .  S
O741       C1081   1.245   1_556  A
O742        C755   1.250       .  A
O742      Co1077   1.970   1_554  S
O743        C755   1.268       .  A
O743       Co748   2.012       .  S
O744        C754   1.257       .  A
O744       Co747   1.982       .  S
O745        C752   1.273       .  A
O746        C753   1.260       .  A
O746       Co749   2.003   1_554  S
Co748      O1078   2.076   1_554  S
Co749      O1061   1.968       .  S
Co749      O1078   1.947       .  S
Co750      O1069   1.945       .  S
Co750       O751   1.959       .  S
O751      Co1075   2.234       .  S
O751      Co1076   1.949       .  S
C752        C835   1.493       .  S
C753        C919   1.481       .  S
C754       O1068   1.240       .  A
C754        C855   1.455       .  S
C755        C875   1.462       .  S
O756        C764   1.263   1_655  A
O756       Co776   1.961   1_655  S
O757        C765   1.252       .  A
O757       Co777   1.965       .  S
O758        C766   1.277       .  A
O758       Co778   2.055       .  S
O759        C767   1.299       .  A
O759      Co1106   2.115       .  S
O760        C766   1.259       .  A
O760       Co777   1.958       .  S
O761        C767   1.266       .  A
O761       Co776   1.893       .  S
O762       C1092   1.260       .  A
O762      Co2414   2.019       .  S
O763       C2072   1.280       .  A
O763      Co1105   2.041       .  S
C764        C959   1.467   1_455  S
C764       O2071   1.275       .  A
C765       O1089   1.259       .  A
C765        C825   1.459       .  S
C766        C868   1.490   1_554  S
C767        C905   1.478       .  S
O768        C781   1.296       .  A
O768       Co776   2.103       .  S
O769        C782   1.275       .  A
O769       Co777   2.035       .  S
O770       C1110   1.259   1_554  A
O770      Co2086   1.971       .  S
O771       C2092   1.271   1_455  A
O771       Co779   1.965       .  S
O772        C784   1.279       .  A
O772       Co777   2.018       .  S
O773        C783   1.267       .  A
O773       Co776   2.020       .  S
O774        C781   1.264       .  A
O774      Co1106   1.902       .  S
O775        C782   1.266       .  A
O775       Co778   1.986       .  S
Co776      O2415   2.009   1_455  S
Co777       O780   1.993       .  S
Co778      O1090   2.025   1_554  S
Co778      O2078   1.982       .  S
Co778       O780   2.037       .  S
Co779      O1086   2.119   1_454  S
Co779      O2397   2.001   1_455  S
Co779      O1101   1.900       .  S
Co779      O2088   2.019   1_455  S
O780      Co2411   1.992   1_554  S
O780      Co2087   2.030       .  S
C781        C858   1.474       .  S
C782        C955   1.487       .  S
C783       O1097   1.257       .  A
C783        C815   1.482       .  S
C784        C901   1.458       .  S
C784       O2079   1.271       .  A
O785        C793   1.276       .  A
O785       Co805   2.008       .  S
O786        C794   1.243       .  A
O786       Co806   1.946       .  S
O787        C795   1.266       .  A
O787       Co807   1.986       .  S
O788        C796   1.276       .  A
O788      Co1135   1.917       .  S
O789        C795   1.269       .  A
O789       Co806   2.006       .  S
O790        C796   1.300       .  A
O790       Co805   2.088       .  S
O791        C794   1.250       .  A
O791       Co808   2.003   1_554  S
O792       C1120   1.261   1_554  A
O792       Co807   1.958       .  S
C793       O1119   1.273       .  A
C793        C818   1.481       .  S
C794        C883   1.470       .  S
C795        C936   1.480       .  S
C796        C838   1.482       .  S
O797        C810   1.271       .  A
O797       Co805   1.896       .  S
O798        C811   1.261       .  A
O798       Co806   1.989       .  S
O799        C812   1.267       .  A
O799      Co1134   2.008       .  S
O800       C1140   1.309       .  A
O800      Co1135   2.115       .  S
O801        C813   1.269       .  A
O801       Co806   1.904       .  S
O802        C812   1.257       .  A
O802       Co805   1.979       .  S
O803        C810   1.292       .  A
O803      Co1135   2.066       .  S
O804        C811   1.265       .  A
O804       Co807   2.006       .  S
Co805      O1136   1.961       .  S
Co806       O809   1.913       .  S
Co807      O1126   2.035   1_554  S
Co807       O809   2.086       .  S
Co808      O1115   1.991       .  S
Co808      O1127   2.043   1_556  S
Co808      O1130   2.033       .  S
Co808       O809   2.260   1_556  S
O809      Co1132   1.925   1_554  S
C810        C887   1.455       .  S
C811        C848   1.481       .  S
C812        C941   1.472       .  S
C813       O1127   1.288       .  A
C813        C828   1.458       .  S
C814        C815   1.404       .  A
C814        C819   1.402       .  A
C814        H820   1.083       .  S
C815       C1143   1.408       .  A
C816       C1142   1.400   1_554  A
C816        C817   1.387       .  A
C816        H821   1.080       .  S
C817       C1145   1.404   1_554  A
C817        H822   1.087       .  S
C818       C1144   1.403       .  A
C818        C819   1.408       .  A
C819        H823   1.082       .  S
C824        C825   1.401       .  A
C824        C829   1.395       .  A
C824        H830   1.084       .  S
C825       C1153   1.403   1_554  A
C826       C1152   1.405       .  A
C826        C827   1.382       .  A
C826        H831   1.082       .  S
C827       C1155   1.396       .  A
C827        H832   1.084       .  S
C828       C1154   1.400   1_554  A
C828        C829   1.403       .  A
C829        H833   1.082       .  S
C834        C835   1.409       .  A
C834        C839   1.408       .  A
C834        H840   1.082       .  S
C835        C836   1.409       .  A
C836        C837   1.397       .  A
C836        H841   1.084       .  S
C837        C838   1.401       .  A
C837        H842   1.084       .  S
C838        C839   1.407       .  A
C839        H843   1.083       .  S
C844        C845   1.405   1_554  A
C844        C849   1.402       .  A
C844        H850   1.081       .  S
C845        C846   1.408       .  A
C846        C847   1.395       .  A
C846        H851   1.083       .  S
C847        C848   1.402   1_556  A
C847        H852   1.081       .  S
C848        C849   1.409       .  A
C849        H853   1.085       .  S
C854        C855   1.405       .  A
C854        C859   1.397       .  A
C854        H860   1.083       .  S
C855        C856   1.397       .  A
C856        C857   1.390       .  A
C856        H861   1.084       .  S
C857        C858   1.402       .  A
C857        H862   1.081       .  S
C858        C859   1.408       .  A
C859        H863   1.083       .  S
C864        C865   1.405       .  A
C864        C869   1.397       .  A
C864        H870   1.085       .  S
C865        C866   1.409   1_556  A
C866        C867   1.412       .  A
C866        H871   1.083       .  S
C867        C868   1.408   1_554  A
C867        H872   1.082       .  S
C868        C869   1.406       .  A
C869        H873   1.083       .  S
C874        H876   1.094       .  S
C874        C875   1.336       .  D
C875        H877   1.089       .  S
C878        H880   1.086       .  S
C879        H881   1.085       .  S
C882        H884   1.085       .  S
C882        C883   1.341       .  D
C883        H885   1.080       .  S
C886        H888   1.089       .  S
C886        C887   1.337       .  D
C887        H889   1.088       .  S
C890        C891   1.402       .  A
C890        C895   1.395       .  A
C890        H896   1.084       .  S
C891        C892   1.410       .  A
C892        C893   1.395       .  A
C892        H897   1.081       .  S
C893        C894   1.399       .  A
C893        H898   1.082       .  S
C894        C895   1.409       .  A
C895        H899   1.081       .  S
C900        H902   1.085       .  S
C900        C901   1.339       .  D
C901       H2211   1.084       .  S
H903       C2209   1.089       .  S
C904       H2214   1.082       .  S
C904        C905   1.351       .  D
C905        H907   1.082       .  S
H906       C2212   1.085       .  S
C908        C909   1.403       .  A
C908        C913   1.387       .  A
C908        H914   1.083       .  S
C909        C910   1.405       .  A
C910        C911   1.403       .  A
C910        H915   1.082       .  S
C911        C912   1.404       .  A
C911        H916   1.084       .  S
C912        C913   1.400       .  A
C913        H917   1.082       .  S
C918        H920   1.087       .  S
C918        C919   1.346       .  D
C922        H924   1.087       .  S
C922        C923   1.353       .  D
C926        C927   1.402       .  A
C926        C931   1.397       .  A
C926        H932   1.086       .  S
C927        C928   1.404       .  A
C928        C929   1.398       .  A
C928        H933   1.082       .  S
C929        C930   1.400       .  A
C929        H934   1.085       .  S
C930        C931   1.402       .  A
C931        H935   1.082       .  S
C936        H938   1.090       .  S
C936        C937   1.343       .  D
C937        H939   1.089       .  S
C940        H942   1.086       .  S
C940        C941   1.351       .  D
C941        H943   1.086       .  S
C944        C945   1.405       .  A
C944        C949   1.406       .  A
C944        H950   1.080       .  S
C945        C946   1.402       .  A
C946        C947   1.392       .  A
C946        H951   1.084       .  S
C947        C948   1.404       .  A
C947        H952   1.083       .  S
C948        C949   1.405       .  A
C949        H953   1.085       .  S
C954        H956   1.086       .  S
C954        C955   1.348       .  D
C954       C1968   1.494       .  S
C955       H2265   1.087       .  S
H957       C2263   1.083       .  S
C958       C1963   1.509       .  S
C958        H960   1.085       .  S
C958        C959   1.348       .  D
C959        H961   1.085       .  S
C962        C963   1.402       .  A
C962        C967   1.391       .  A
C962        H968   1.084       .  S
C963        C964   1.405       .  A
C964        C965   1.404       .  A
C964        H969   1.084       .  S
C965        C966   1.404       .  A
C965        H970   1.082       .  S
C966        C967   1.405       .  A
C967        H971   1.083       .  S
C972        C973   1.403       .  A
C972        C977   1.398       .  A
C972        H978   1.085       .  S
C973        C974   1.407       .  A
C974        C975   1.392       .  A
C974        H979   1.074       .  S
C975        C976   1.396       .  A
C975        H980   1.088       .  S
C976        C977   1.401       .  A
C977        H981   1.081       .  S
C982       C2291   1.531       .  S
C982        C988   1.525       .  S
C982        C986   1.534       .  S
C982       C2593   1.503       .  S
C983       C2290   1.531   1_455  S
C983        H990   1.087       .  S
C983        C984   1.364       .  D
C984        C985   1.538       .  S
C984       C1290   1.484       .  S
C985       C2297   1.542   1_455  S
C985        C987   1.541   1_455  S
C985        H991   1.110       .  S
C986        H992   1.088       .  S
C986       C2295   1.366       .  D
C987       C2294   1.372       .  D
C987       C2589   1.482       .  S
C988        H993   1.085       .  S
C988        C989   1.365       .  D
C989       C2293   1.539       .  S
C989       C1300   1.477       .  S
C994        C995   1.533       .  S
C994       C1000   1.528       .  S
C994        C998   1.549       .  S
C994       C1267   1.525       .  S
C995       H1002   1.086       .  S
C995        C996   1.371       .  D
C996        C997   1.538       .  S
C996       C1272   1.479       .  S
C997       C1001   1.541       .  S
C997        C999   1.536       .  S
C997       H1003   1.111       .  S
C998       H1004   1.085       .  S
C998        C999   1.373       .  D
C999       C1264   1.480       .  S
C1000      H1005   1.087       .  S
C1000      C1001   1.364       .  D
C1001      C1293   1.483       .  S
C1006      C1012   1.521       .  S
C1006      C1010   1.533       .  S
C1006      C1249   1.511       .  S
C1007      H1014   1.089       .  S
C1007      C1008   1.362       .  D
C1008      C1254   1.473       .  S
C1009      C1013   1.549       .  S
C1009      C1011   1.557       .  S
C1009      H1015   1.110       .  S
C1010      H1016   1.085       .  S
C1010      C1011   1.373       .  D
C1011      C1245   1.491       .  S
C1012      H1017   1.088       .  S
C1012      C1013   1.359       .  D
C1013      C1275   1.480       .  S
C1018      C2327   1.525   1_455  S
C1018      C1024   1.533       .  S
C1018      C1022   1.540       .  S
C1018      C1231   1.509       .  S
C1019      C2326   1.536       .  S
C1019      H1026   1.082       .  S
C1019      C1020   1.369       .  D
C1020      C1021   1.541       .  S
C1020      C1236   1.482       .  S
C1021      C2333   1.533       .  S
C1021      C1023   1.538       .  S
C1021      H1027   1.111       .  S
C1022      H1028   1.084       .  S
C1022      C2331   1.369       .  D
C1023      C2330   1.362       .  D
C1023      C1227   1.470       .  S
C1024      H1029   1.083       .  S
C1024      C1025   1.367       .  D
C1025      C2329   1.531       .  S
C1025      C1257   1.470       .  S
C1030      C1031   1.527       .  S
C1030      C1036   1.533       .  S
C1030      C1034   1.517       .  S
C1030      C1213   1.497       .  S
C1031      H1038   1.085       .  S
C1031      C1032   1.368       .  D
C1032      C1033   1.547       .  S
C1032      C1218   1.484       .  S
C1033      C1037   1.538       .  S
C1033      C1035   1.542       .  S
C1033      H1039   1.110       .  S
C1034      H1040   1.086       .  S
C1034      C1035   1.367       .  D
C1035      C1209   1.475       .  S
C1036      H1041   1.086       .  S
C1036      C1037   1.361       .  D
C1037      C1239   1.473       .  S
C1042      C1048   1.527       .  S
C1042      C1046   1.537       .  S
C1042      C1201   1.506       .  S
C1043      H1050   1.085       .  S
C1043      C1044   1.363       .  D
C1044      C1221   1.483       .  S
C1045      C1049   1.540       .  S
C1045      C1047   1.536       .  S
C1045      H1051   1.107       .  S
C1046      H1052   1.085       .  S
C1046      C1047   1.375       .  D
C1047      C1205   1.482       .  S
C1048      H1053   1.085       .  S
C1048      C1049   1.365       .  D
C1049      C1303   1.484       .  S
O1054      C1062   1.270       .  A
O1054     Co1074   2.012       .  S
O1055      C1063   1.298       .  A
O1055     Co1075   2.064       .  S
O1056      C1064   1.273       .  A
O1056     Co1076   1.904       .  S
O1057     Co1077   1.978       .  S
O1058      C1064   1.300       .  A
O1058     Co1075   2.084       .  S
O1059      C1065   1.279       .  A
O1059     Co1074   2.050       .  S
O1060     Co1077   2.043       .  S
C1063      C1192   1.493       .  S
C1064      C1172   1.490       .  S
C1065      C1206   1.494       .  S
O1066      C1079   1.245   1_554  A
O1066     Co1074   1.941   1_554  S
O1067      C1080   1.254       .  A
O1067     Co1075   2.005       .  S
O1069      C1082   1.241       .  A
O1070      C1082   1.252       .  A
O1070     Co1075   1.991       .  S
O1071      C1081   1.259       .  A
O1071     Co1074   1.984   1_554  S
O1072      C1079   1.271       .  A
O1073      C1080   1.246       .  A
O1073     Co1076   1.978       .  S
Co1077     O1078   1.941       .  S
C1079      C1162   1.488       .  S
C1080      C1246   1.487       .  S
C1081      C1182   1.461       .  S
C1082      C1202   1.455       .  S
O1083      C1091   1.266   1_655  A
O1083     Co1103   1.963   1_655  S
O1084      C1092   1.249       .  A
O1084     Co1104   1.951       .  S
O1085      C1093   1.273       .  A
O1085     Co1105   2.044       .  S
O1086      C1094   1.297   1_655  A
O1087      C1093   1.258       .  A
O1087     Co1104   1.958       .  S
O1088      C1094   1.263       .  A
O1088     Co1103   1.884       .  S
O1089     Co2087   2.002       .  S
O1090      C2399   1.278       .  A
C1091      C1286   1.472   1_455  S
C1091      O2398   1.280       .  A
C1092      C1152   1.471       .  S
C1093      C1195   1.496       .  S
C1094      C1232   1.470       .  S
O1095      C1108   1.300   1_556  A
O1095     Co1103   2.119       .  S
O1096      C1109   1.275       .  A
O1096     Co1104   2.029       .  S
O1097     Co2413   1.968       .  S
O1098      C2419   1.274   1_455  A
O1098     Co1106   1.971       .  S
O1099      C1111   1.279       .  A
O1099     Co1104   2.029       .  S
O1100      C1110   1.260       .  A
O1100     Co1103   1.992       .  S
O1101      C1108   1.266       .  A
O1102      C1109   1.256       .  A
O1102     Co1105   1.945       .  S
Co1103     O2088   1.997   1_456  S
Co1104     O1107   2.002       .  S
Co1105     O2405   1.961       .  S
Co1105     O1107   2.036       .  S
Co1106     O2070   2.001   1_455  S
Co1106     O2415   2.021   1_455  S
O1107     Co2084   2.002       .  S
O1107     Co2414   2.042       .  S
C1108      C1185   1.482       .  S
C1109      C1282   1.470       .  S
C1110      C1142   1.466       .  S
C1111      C1228   1.466       .  S
C1111      O2406   1.263       .  A
O1112      C1120   1.269       .  A
O1112     Co1132   2.009       .  S
O1113      C1121   1.252       .  A
O1113     Co1133   1.984       .  S
O1114      C1122   1.274       .  A
O1114     Co1134   1.985       .  S
O1115      C1123   1.250       .  A
O1116      C1122   1.280       .  A
O1116     Co1133   2.024       .  S
O1117      C1123   1.248       .  A
O1117     Co1132   1.974       .  S
O1118      C1121   1.250       .  A
O1118     Co1135   1.971       .  S
O1119     Co1134   1.982       .  S
C1120      C1145   1.469       .  S
C1121      C1210   1.450       .  S
C1122      C1263   1.486       .  S
C1123      C1165   1.474       .  S
O1124      C1137   1.272       .  A
O1124     Co1132   1.898       .  S
O1125      C1138   1.270       .  A
O1125     Co1133   1.976       .  S
O1126      C1139   1.271       .  A
O1128      C1140   1.279       .  A
O1128     Co1133   1.850       .  S
O1129      C1139   1.255       .  A
O1129     Co1132   1.985       .  S
O1130      C1137   1.288       .  A
O1131      C1138   1.278       .  A
O1131     Co1134   2.024       .  S
Co1133     O1136   1.883       .  S
Co1134     O1136   2.007       .  S
Co1135     O1136   2.032       .  S
C1137      C1214   1.447       .  S
C1138      C1175   1.489       .  S
C1139      C1268   1.487       .  S
C1140      C1155   1.459       .  S
C1141      C1142   1.406       .  A
C1141      C1146   1.399       .  A
C1141      H1147   1.082       .  S
C1143      C1144   1.396       .  A
C1143      H1148   1.083       .  S
C1144      H1149   1.084       .  S
C1145      C1146   1.403       .  A
C1146      H1150   1.083       .  S
C1151      C1152   1.407       .  A
C1151      C1156   1.406       .  A
C1151      H1157   1.081       .  S
C1153      C1154   1.392       .  A
C1153      H1158   1.083       .  S
C1154      H1159   1.084       .  S
C1155      C1156   1.404       .  A
C1156      H1160   1.084       .  S
C1161      C1162   1.404       .  A
C1161      C1166   1.404       .  A
C1161      H1167   1.081       .  S
C1162      C1163   1.412   1_556  A
C1163      C1164   1.394       .  A
C1163      H1168   1.086       .  S
C1164      C1165   1.398   1_554  A
C1164      H1169   1.081       .  S
C1165      C1166   1.408       .  A
C1166      H1170   1.083       .  S
C1171      C1172   1.407       .  A
C1171      C1176   1.402       .  A
C1171      H1177   1.081       .  S
C1172      C1173   1.407       .  A
C1173      C1174   1.403       .  A
C1173      H1178   1.087       .  S
C1174      C1175   1.407       .  A
C1174      H1179   1.080       .  S
C1175      C1176   1.407       .  A
C1176      H1180   1.086       .  S
C1181      C1182   1.405       .  A
C1181      C1186   1.400       .  A
C1181      H1187   1.085       .  S
C1182      C1183   1.399       .  A
C1183      C1184   1.393       .  A
C1183      H1188   1.081       .  S
C1184      C1185   1.403       .  A
C1184      H1189   1.084       .  S
C1185      C1186   1.409       .  A
C1186      H1190   1.083       .  S
C1191      C1192   1.405       .  A
C1191      C1196   1.394       .  A
C1191      H1197   1.082       .  S
C1192      C1193   1.410       .  A
C1193      C1194   1.414       .  A
C1193      H1198   1.083       .  S
C1194      C1195   1.410       .  A
C1194      H1199   1.083       .  S
C1195      C1196   1.407       .  A
C1196      H1200   1.083       .  S
C1201      H1203   1.083       .  S
C1201      C1202   1.344       .  D
C1202      H1204   1.083       .  S
C1205      H1207   1.089       .  S
C1206      H1208   1.084       .  S
C1209      H1211   1.087       .  S
C1209      C1210   1.339       .  D
C1210      H1212   1.087       .  S
C1213      H1215   1.088       .  S
C1213      C1214   1.330       .  D
C1214      H1216   1.087       .  S
C1217      C1218   1.402       .  A
C1217      C1222   1.393       .  A
C1217      H1223   1.080       .  S
C1218      C1219   1.409       .  A
C1219      C1220   1.396       .  A
C1219      H1224   1.081       .  S
C1220      C1221   1.401       .  A
C1220      H1225   1.085       .  S
C1221      C1222   1.407       .  A
C1222      H1226   1.084       .  S
C1227      H1229   1.089       .  S
C1227      C1228   1.337       .  D
C1228      H2538   1.091       .  S
H1230      C2536   1.094       .  S
C1231      H2541   1.092       .  S
C1231      C1232   1.345       .  D
C1232      H1234   1.092       .  S
H1233      C2539   1.087       .  S
C1235      C1236   1.404       .  A
C1235      C1240   1.392       .  A
C1235      H1241   1.084       .  S
C1236      C1237   1.407       .  A
C1237      C1238   1.403       .  A
C1237      H1242   1.085       .  S
C1238      C1239   1.402       .  A
C1238      H1243   1.081       .  S
C1239      C1240   1.401       .  A
C1240      H1244   1.082       .  S
C1245      H1247   1.081       .  S
C1245      C1246   1.347       .  D
C1249      H1251   1.088       .  S
C1249      C1250   1.349       .  D
C1253      C1254   1.402       .  A
C1253      C1258   1.391       .  A
C1253      H1259   1.082       .  S
C1254      C1255   1.405       .  A
C1255      C1256   1.402       .  A
C1255      H1260   1.086       .  S
C1256      C1257   1.401       .  A
C1256      H1261   1.080       .  S
C1257      C1258   1.401       .  A
C1258      H1262   1.084       .  S
C1263      H1265   1.086       .  S
C1263      C1264   1.347       .  D
C1264      H1266   1.086       .  S
C1267      H1269   1.084       .  S
C1267      C1268   1.356       .  D
C1268      H1270   1.084       .  S
C1271      C1272   1.400       .  A
C1271      C1276   1.394       .  A
C1271      H1277   1.081       .  S
C1272      C1273   1.407       .  A
C1273      C1274   1.405       .  A
C1273      H1278   1.084       .  S
C1274      C1275   1.403       .  A
C1274      H1279   1.083       .  S
C1275      C1276   1.407       .  A
C1276      H1280   1.085       .  S
C1281      H1283   1.086       .  S
C1281      C1282   1.337       .  D
C1281      C2295   1.483       .  S
C1282      H2592   1.085       .  S
H1284      C2590   1.087       .  S
C1285      C2290   1.513       .  S
C1285      H1287   1.084       .  S
C1285      C1286   1.351       .  D
C1286      H1288   1.084   1_655  S
C1289      C1290   1.407       .  A
C1289      C1294   1.407       .  A
C1289      H1295   1.085       .  S
C1290      C1291   1.403       .  A
C1291      C1292   1.391       .  A
C1291      H1296   1.080       .  S
C1292      C1293   1.403       .  A
C1292      H1297   1.086       .  S
C1293      C1294   1.405       .  A
C1294      H1298   1.081       .  S
C1299      C1300   1.400       .  A
C1299      C1304   1.392       .  A
C1299      H1305   1.095       .  S
C1300      C1301   1.404       .  A
C1301      C1302   1.390       .  A
C1301      H1306   1.078       .  S
C1302      C1303   1.403       .  A
C1302      H1307   1.083       .  S
C1303      C1304   1.410       .  A
C1304      H1308   1.071       .  S
C1309      C1315   1.530       .  S
C1309      C1313   1.527       .  S
C1310      H1317   1.088       .  S
C1310      C1311   1.358       .  D
C1311      C1312   1.541       .  S
C1311      C1617   1.477       .  S
C1312      C1314   1.552       .  S
C1312      H1318   1.107       .  S
C1313      H1319   1.089       .  S
C1315      H1320   1.089       .  S
C1315      C1316   1.369       .  D
C1316      C1627   1.482       .  S
C1321      C1322   1.529       .  S
C1321      C1327   1.534       .  S
C1321      C1325   1.543       .  S
C1321      C1594   1.517       .  S
C1322      H1329   1.086       .  S
C1322      C1323   1.366       .  D
C1323      C1324   1.540       .  S
C1323      C1599   1.478       .  S
C1324      C1328   1.540       .  S
C1324      C1326   1.537       .  S
C1324      H1330   1.111       .  S
C1325      H1331   1.086       .  S
C1325      C1326   1.367       .  D
C1326      C1591   1.476       .  S
C1327      H1332   1.086       .  S
C1327      C1328   1.368       .  D
C1328      C1620   1.478       .  S
C1333      C1988   1.523       .  S
C1333      C1339   1.533   1_565  S
C1333      C1337   1.529   1_565  S
C1333      C1576   1.504       .  S
C1334      C1987   1.530       .  S
C1334      H1341   1.090       .  S
C1334      C1335   1.364       .  D
C1335      C1990   1.536       .  S
C1335      C1581   1.477       .  S
C1336      C1989   1.539   1_545  S
C1336      C1340   1.540       .  S
C1336      C1338   1.549       .  S
C1336      H1342   1.111       .  S
C1337      H1343   1.088       .  S
C1337      C1338   1.364       .  D
C1338      C1572   1.473       .  S
C1339      H1344   1.088       .  S
C1339      C1340   1.365       .  D
C1340      C1602   1.475       .  S
C1345      C1351   1.529       .  S
C1345      C1349   1.520       .  S
C1345      C1558   1.507       .  S
C1346      H1353   1.089       .  S
C1346      C1347   1.362       .  D
C1347      C1348   1.546       .  S
C1347      C1563   1.474       .  S
C1348      C1350   1.551       .  S
C1348      H1354   1.107       .  S
C1349      H1355   1.091       .  S
C1350      C1554   1.493   1_655  S
C1351      H1356   1.086       .  S
C1351      C1352   1.367       .  D
C1352      C1584   1.478       .  S
C1357      C1358   1.526       .  S
C1357      C1363   1.534       .  S
C1357      C1361   1.536       .  S
C1357      C1540   1.513       .  S
C1358      H1365   1.086       .  S
C1358      C1359   1.365       .  D
C1359      C1360   1.548       .  S
C1359      C1545   1.492       .  S
C1360      C1364   1.537       .  S
C1360      C1362   1.545       .  S
C1360      H1366   1.109       .  S
C1361      H1367   1.086       .  S
C1361      C1362   1.369       .  D
C1362      C1536   1.484       .  S
C1363      H1368   1.086       .  S
C1363      C1364   1.368       .  D
C1364      C1566   1.476       .  S
C1369      C2024   1.521       .  S
C1369      C1375   1.533   1_565  S
C1369      C1373   1.542       .  S
C1369      C1528   1.516       .  S
C1370      C2023   1.536       .  S
C1370      H1377   1.077       .  S
C1370      C1371   1.367       .  D
C1371      C2026   1.550       .  S
C1371      C1548   1.492       .  S
C1372      C2025   1.546   1_545  S
C1372      C1376   1.544       .  S
C1372      C1374   1.542   1_545  S
C1372      H1378   1.106       .  S
C1373      H1379   1.084       .  S
C1373      C1374   1.375       .  D
C1374      C1532   1.490   1_565  S
C1375      H1380   1.083       .  S
C1375      C1376   1.371       .  D
C1376      C1630   1.495       .  S
O1381      C1389   1.265       .  A
O1381     Co1401   2.005       .  S
O1382      C1390   1.267       .  A
O1382     Co1402   2.005       .  S
O1383      C1391   1.234       .  A
O1383     Co1403   1.915       .  S
O1384      C2046   1.267   1_545  A
O1384     Co1404   1.981       .  S
O1385      C1391   1.286   1_554  A
O1385     Co1402   2.086       .  S
O1386      C1392   1.269       .  A
O1386     Co1401   2.032       .  S
O1387      C1717   1.259       .  A
O1387     Co1404   1.974       .  S
O1388      C2043   1.262       .  A
O1388     Co1730   1.953       .  S
C1389      C2231   1.474       .  S
C1389      O2042   1.260       .  A
C1390      O1714   1.261   1_554  A
C1390      C1519   1.481       .  S
C1391      C1499   1.478       .  S
C1392      C1533   1.491       .  S
C1392      O2038   1.258       .  A
O1393      C1406   1.257       .  A
O1393     Co1401   1.950       .  S
O1394      C1407   1.270       .  A
O1394     Co1402   1.896       .  S
O1395      C1735   1.275       .  A
O1395     Co2057   1.902       .  S
O1396      C1409   1.276       .  A
O1396     Co1731   2.021   1_554  S
O1397      C1409   1.268   1_565  A
O1397     Co1402   1.978   1_565  S
O1398      C1408   1.259       .  A
O1398     Co1401   1.955       .  S
O1399      C1406   1.278       .  A
O1399     Co2058   2.044       .  S
O1400      C1407   1.291   1_565  A
O1400     Co1403   2.073   1_564  S
Co1401     O2059   2.080       .  S
Co1402     O1732   2.000   1_544  S
Co1403     O1715   1.958       .  S
Co1403     O2049   1.939   1_545  S
Co1403     O1732   2.042   1_545  S
Co1404     O1723   2.031       .  S
Co1404     O2053   2.037   1_545  S
Co1404     O1405   2.042       .  S
O1405     Co2055   2.005   1_545  S
O1405     Co1729   2.017       .  S
O1405     Co1730   2.016       .  S
C1406      C1489   1.489       .  S
C1407      C1573   1.467       .  S
C1408      O1722   1.272       .  A
C1408      C1509   1.473       .  S
C1409      C1529   1.475   1_545  S
O1410      C1418   1.283       .  A
O1410     Co1430   2.043       .  S
O1411      C1419   1.271       .  A
O1411     Co1431   2.043       .  S
O1412      C1420   1.268       .  A
O1412     Co1432   1.903       .  S
O1413      C1421   1.258       .  A
O1413     Co1760   1.954       .  S
O1414      C1420   1.296       .  A
O1414     Co1431   2.104       .  S
O1415      C1421   1.269       .  A
O1415     Co1430   2.016       .  S
O1416      C1746   1.238       .  A
O1417     Co1759   2.025       .  S
C1418      C1613   1.474       .  S
C1419      O1743   1.257   1_554  A
C1419      C1479   1.487       .  S
C1420      C1522   1.485       .  S
C1421      C1559   1.456       .  S
O1422      C1435   1.266       .  A
O1422     Co1430   1.969       .  S
O1423      C1436   1.273       .  A
O1423     Co1431   1.902       .  S
O1424      C1764   1.270   1_556  A
O1425     Co1433   2.027   1_554  S
O1426      C1438   1.268   1_455  A
O1426     Co1431   1.966   1_455  S
O1427      C1437   1.255       .  A
O1427     Co1430   1.974       .  S
O1428      C1435   1.271       .  A
O1428     Co1760   2.018       .  S
O1429      C1436   1.292       .  A
O1429     Co1432   2.086       .  S
Co1431     O1434   2.013   1_655  S
Co1432     O1744   1.949   1_554  S
Co1432     O1434   2.011   1_655  S
Co1433     O1740   1.965       .  S
Co1433     O1755   2.023       .  S
C1435      C1512   1.474       .  S
C1436      C1609   1.477       .  S
C1437      O1751   1.273       .  A
C1437      C1469   1.493       .  S
C1438      C1555   1.485       .  S
O1439      C1447   1.273       .  A
O1439     Co1459   2.041       .  S
O1440      C1448   1.283       .  A
O1440     Co1460   2.041       .  S
O1441      C1449   1.261       .  A
O1441     Co1461   1.971       .  S
O1442      C1450   1.265       .  A
O1442     Co1789   1.892       .  S
O1443      C1449   1.270       .  A
O1443     Co1460   2.023       .  S
O1444      C1450   1.303       .  A
O1444     Co1459   2.115       .  S
O1445      C1448   1.270       .  A
O1445     Co1462   1.962       .  S
O1446      C1774   1.257   1_554  A
O1446     Co1461   1.969       .  S
C1447      O1773   1.262       .  A
C1447      C1472   1.502       .  S
C1448      C1537   1.478       .  S
C1449      C1590   1.472       .  S
C1450      C1492   1.486       .  S
O1451      C1464   1.269       .  A
O1451     Co1459   1.893       .  S
O1452      C1465   1.254       .  A
O1452     Co1460   1.942   1_556  S
O1453      C1466   1.276       .  A
O1453     Co1788   2.033       .  S
O1454      C1794   1.262       .  A
O1454     Co1789   2.022       .  S
O1455      C1467   1.246   1_556  A
O1455     Co1460   1.957   1_556  S
O1456      C1466   1.264       .  A
O1456     Co1459   1.967       .  S
O1457      C1464   1.296       .  A
O1457     Co1789   2.109       .  S
O1458      C1465   1.277   1_554  A
O1458     Co1461   2.049       .  S
Co1459     O1790   2.007       .  S
Co1460     O1463   2.009       .  S
Co1461     O1780   2.032   1_554  S
Co1461     O1463   2.037       .  S
Co1462     O1769   1.895       .  S
Co1462     O1781   2.049       .  S
Co1462     O1784   2.096   1_554  S
Co1462     O1463   2.021       .  S
O1463     Co1786   2.013   1_554  S
C1464      C1541   1.473       .  S
C1465      C1502   1.483       .  S
C1466      C1595   1.482       .  S
C1467      O1781   1.265       .  A
C1467      C1482   1.489       .  S
C1468      C1469   1.408       .  A
C1468      C1473   1.412       .  A
C1468      H1474   1.083       .  S
C1469      C1797   1.406       .  A
C1470      C1796   1.403   1_554  A
C1470      C1471   1.401       .  A
C1470      H1475   1.084       .  S
C1471      C1799   1.409   1_554  A
C1471      H1476   1.082       .  S
C1472      C1798   1.409       .  A
C1472      C1473   1.410       .  A
C1473      H1477   1.083       .  S
C1478      C1479   1.408       .  A
C1478      C1483   1.411       .  A
C1478      H1484   1.083       .  S
C1479      C1807   1.404   1_554  A
C1480      C1806   1.406       .  A
C1480      C1481   1.400       .  A
C1480      H1485   1.085       .  S
C1481      C1809   1.407       .  A
C1481      H1486   1.083       .  S
C1482      C1808   1.406   1_554  A
C1482      C1483   1.408       .  A
C1483      H1487   1.083       .  S
C1488      C1489   1.404       .  A
C1488      C1493   1.409       .  A
C1488      H1494   1.080       .  S
C1489      C1490   1.411       .  A
C1490      C1491   1.394       .  A
C1490      H1495   1.085       .  S
C1491      C1492   1.399       .  A
C1491      H1496   1.080       .  S
C1492      C1493   1.413       .  A
C1493      H1497   1.084       .  S
C1498      C1499   1.417       .  A
C1498      C1503   1.404       .  A
C1498      H1504   1.084   1_556  S
C1499      C1500   1.389       .  A
C1500      C1501   1.389       .  A
C1500      H1505   1.087       .  S
C1501      C1502   1.411       .  A
C1501      H1506   1.081       .  S
C1502      C1503   1.403       .  A
C1503      H1507   1.085   1_556  S
C1508      C1509   1.401       .  A
C1508      C1513   1.404       .  A
C1508      H1514   1.082       .  S
C1509      C1510   1.406       .  A
C1510      C1511   1.391       .  A
C1510      H1515   1.084       .  S
C1511      C1512   1.400       .  A
C1511      H1516   1.084       .  S
C1512      C1513   1.409       .  A
C1513      H1517   1.084       .  S
C1518      C1519   1.404       .  A
C1518      C1523   1.405       .  A
C1518      H1524   1.084       .  S
C1519      C1520   1.406   1_554  A
C1520      C1521   1.399       .  A
C1520      H1525   1.084       .  S
C1521      C1522   1.404   1_556  A
C1521      H1526   1.081       .  S
C1522      C1523   1.408       .  A
C1523      H1527   1.081       .  S
C1528      H1530   1.088       .  S
C1528      C1529   1.351       .  D
C1529      H1531   1.089       .  S
C1532      H1534   1.090       .  S
C1532      C2187   1.343   1_545  D
C1533      H1535   1.080       .  S
C1533      C2186   1.347       .  D
C1536      H1538   1.087       .  S
C1536      C1537   1.347       .  D
C1537      H1539   1.088       .  S
C1540      H1542   1.087       .  S
C1540      C1541   1.347       .  D
C1541      H1543   1.087       .  S
C1544      C1545   1.402       .  A
C1544      C1549   1.398       .  A
C1544      H1550   1.083       .  S
C1545      C1546   1.411       .  A
C1546      C1547   1.396       .  A
C1546      H1551   1.079       .  S
C1547      C1548   1.401       .  A
C1547      H1552   1.080       .  S
C1548      C1549   1.412       .  A
C1549      H1553   1.081       .  S
C1554      H1556   1.082       .  S
C1554      C1555   1.350   1_455  D
C1558      C1559   1.336       .  D
C1559      H1561   1.087       .  S
C1562      C1563   1.403       .  A
C1562      C1567   1.404       .  A
C1562      H1568   1.081       .  S
C1563      C1564   1.403       .  A
C1564      C1565   1.393       .  A
C1564      H1569   1.082       .  S
C1565      C1566   1.400       .  A
C1565      H1570   1.085       .  S
C1566      C1567   1.404       .  A
C1567      H1571   1.084       .  S
C1572      H1574   1.086       .  S
C1572      C1573   1.335       .  D
C1573      H2229   1.085   1_545  S
H1575      C2227   1.089       .  S
C1576      H1578   1.087       .  S
C1576      C1577   1.337   1_565  D
C1577      H2233   1.087       .  S
C1577      C2043   1.465       .  S
H1579      C2231   1.086       .  S
C1580      C1581   1.405       .  A
C1580      C1585   1.404       .  A
C1580      H1586   1.084       .  S
C1581      C1582   1.402       .  A
C1582      C1583   1.395       .  A
C1582      H1587   1.081       .  S
C1583      C1584   1.403       .  A
C1583      H1588   1.084       .  S
C1584      C1585   1.404       .  A
C1585      H1589   1.083       .  S
C1590      H1592   1.087       .  S
C1590      C1591   1.342       .  D
C1591      H1593   1.087       .  S
C1594      H1596   1.086       .  S
C1594      C1595   1.350       .  D
C1595      H1597   1.086       .  S
C1598      C1599   1.405       .  A
C1598      C1603   1.406       .  A
C1598      H1604   1.082       .  S
C1599      C1600   1.402       .  A
C1600      C1601   1.391       .  A
C1600      H1605   1.084       .  S
C1601      C1602   1.401       .  A
C1601      H1606   1.082       .  S
C1602      C1603   1.404       .  A
C1603      H1607   1.084       .  S
C1608      H1610   1.092       .  S
C1608      C1609   1.336       .  D
C1612      H1614   1.089       .  S
C1612      C1613   1.338       .  D
C1613      H1615   1.089       .  S
C1616      C1617   1.405       .  A
C1616      C1621   1.399       .  A
C1616      H1622   1.082       .  S
C1617      C1618   1.402       .  A
C1618      C1619   1.403       .  A
C1618      H1623   1.084       .  S
C1619      C1620   1.405       .  A
C1619      H1624   1.082       .  S
C1620      C1621   1.400       .  A
C1621      H1625   1.083       .  S
C1626      C1627   1.401       .  A
C1626      C1631   1.395       .  A
C1626      H1632   1.084       .  S
C1627      C1628   1.404       .  A
C1628      C1629   1.397       .  A
C1628      H1633   1.081       .  S
C1629      C1630   1.409       .  A
C1629      H1634   1.078       .  S
C1630      C1631   1.409       .  A
C1631      H1635   1.078       .  S
C1636      C1642   1.538       .  S
C1636      C1640   1.530       .  S
C1637      H1644   1.087       .  S
C1637      C1638   1.360       .  D
C1638      C1639   1.543       .  S
C1638      C1944   1.475       .  S
C1639      C1641   1.551       .  S
C1639      H1645   1.108       .  S
C1640      H1646   1.083       .  S
C1642      H1647   1.087       .  S
C1642      C1643   1.371       .  D
C1643      C1954   1.485       .  S
C1648      C1649   1.529       .  S
C1648      C1654   1.533       .  S
C1648      C1652   1.549       .  S
C1648      C1921   1.522       .  S
C1649      H1656   1.088       .  S
C1649      C1650   1.366       .  D
C1650      C1651   1.543       .  S
C1650      C1926   1.483       .  S
C1651      C1655   1.535       .  S
C1651      C1653   1.536       .  S
C1651      H1657   1.111       .  S
C1652      H1658   1.086       .  S
C1652      C1653   1.375       .  D
C1653      C1918   1.484       .  S
C1654      H1659   1.088       .  S
C1654      C1655   1.364       .  D
C1655      C1947   1.476       .  S
C1660      C2315   1.521       .  S
C1660      C1666   1.532   1_565  S
C1660      C1664   1.531       .  S
C1660      C1903   1.509       .  S
C1661      C2314   1.525       .  S
C1661      H1668   1.086       .  S
C1661      C1662   1.364       .  D
C1662      C2317   1.548       .  S
C1662      C1908   1.482       .  S
C1663      C2316   1.545       .  S
C1663      C1667   1.547   1_565  S
C1663      C1665   1.552   1_565  S
C1663      H1669   1.109   1_565  S
C1664      H1670   1.087   1_565  S
C1664      C1665   1.368   1_565  D
C1665      C1899   1.482       .  S
C1666      H1671   1.086       .  S
C1666      C1667   1.367       .  D
C1667      C1929   1.490       .  S
C1672      C1678   1.534       .  S
C1672      C1676   1.534       .  S
C1672      C1885   1.510       .  S
C1673      H1680   1.089       .  S
C1673      C1674   1.364       .  D
C1674      C1675   1.545       .  S
C1674      C1890   1.484       .  S
C1675      C1677   1.544       .  S
C1675      H1681   1.110       .  S
C1676      H1682   1.089       .  S
C1677      C1881   1.485       .  S
C1678      H1683   1.086       .  S
C1678      C1679   1.371       .  D
C1679      C1911   1.484       .  S
C1684      C1685   1.526       .  S
C1684      C1690   1.535       .  S
C1684      C1688   1.538       .  S
C1684      C1867   1.510       .  S
C1685      H1692   1.087       .  S
C1685      C1686   1.358       .  D
C1686      C1687   1.532       .  S
C1686      C1872   1.459       .  S
C1687      C1691   1.538       .  S
C1687      C1689   1.537       .  S
C1687      H1693   1.111       .  S
C1688      H1694   1.087       .  S
C1688      C1689   1.371       .  D
C1689      C1863   1.479       .  S
C1690      H1695   1.087       .  S
C1690      C1691   1.369       .  D
C1691      C1893   1.477       .  S
C1696      C2351   1.522   1_545  S
C1696      C1702   1.533       .  S
C1696      C1700   1.546   1_545  S
C1696      C1855   1.513       .  S
C1697      C2350   1.527       .  S
C1697      H1704   1.087       .  S
C1697      C1698   1.357       .  D
C1698      C2353   1.534       .  S
C1698      C1875   1.468       .  S
C1699      C2352   1.544   1_545  S
C1699      C1703   1.540       .  S
C1699      C1701   1.542       .  S
C1699      H1705   1.109       .  S
C1700      H1706   1.085       .  S
C1700      C1701   1.375   1_565  D
C1701      C1859   1.489       .  S
C1702      H1707   1.087       .  S
C1702      C1703   1.366       .  D
C1703      C1957   1.486       .  S
O1708      C1716   1.249       .  A
O1708     Co1728   1.987       .  S
O1709      C1717   1.267       .  A
O1709     Co1729   2.017       .  S
O1710      C1718   1.263       .  A
O1710     Co1730   1.896       .  S
O1711      C2373   1.266   1_545  A
O1711     Co1731   1.973       .  S
O1712      C1718   1.298       .  A
O1712     Co1729   2.107       .  S
O1713      C1719   1.252       .  A
O1713     Co1728   1.984       .  S
O1714     Co1731   1.972       .  S
O1715      C2370   1.260   1_545  A
C1716      C2558   1.465       .  S
C1716      O2369   1.244       .  A
C1717      C1846   1.479       .  S
C1718      C1826   1.478       .  S
C1719      C1860   1.472       .  S
C1719      O2365   1.251       .  A
O1720      C1733   1.298       .  A
O1720     Co1728   2.080       .  S
O1721      C1734   1.269       .  A
O1721     Co1729   1.909       .  S
O1722     Co2384   2.024       .  S
O1723      C1736   1.280       .  A
O1724      C1736   1.264       .  A
O1724     Co1729   1.960       .  S
O1725      C1735   1.299       .  A
O1725     Co1728   2.068       .  S
O1726      C1733   1.272       .  A
O1726     Co2385   1.911       .  S
O1727      C1734   1.290       .  A
O1727     Co1730   2.091       .  S
Co1728     O2386   2.235       .  S
Co1730     O2376   2.021   1_545  S
Co1731     O2380   2.052   1_545  S
Co1731     O1732   2.055   1_545  S
O1732     Co2382   2.048       .  S
C1733      C1816   1.488       .  S
C1734      C1900   1.475       .  S
C1735      C1836   1.471   1_556  S
C1736      C1856   1.470       .  S
O1737      C1745   1.283       .  A
O1737     Co1757   2.033       .  S
O1738      C1746   1.260       .  A
O1738     Co1758   1.998       .  S
O1739      C1747   1.272       .  A
O1739     Co1759   2.045   1_655  S
O1740      C1748   1.264       .  A
O1741      C1747   1.252       .  A
O1741     Co1758   1.954       .  S
O1742      C1748   1.269       .  A
O1742     Co1757   2.018       .  S
C1745      C1940   1.466       .  S
C1746      C1806   1.456       .  S
C1747      C1849   1.476       .  S
C1748      C1886   1.479       .  S
O1749      C1762   1.263       .  A
O1749     Co1757   1.957   1_554  S
O1750      C1763   1.273       .  A
O1750     Co1758   2.029       .  S
O1752     Co1760   2.028       .  S
O1753      C1765   1.277       .  A
O1753     Co1758   2.028       .  S
O1754      C1764   1.253       .  A
O1754     Co1757   1.968   1_554  S
O1755      C1762   1.275   1_556  A
O1756      C1763   1.259   1_455  A
O1756     Co1759   1.943       .  S
Co1758     O1761   2.052       .  S
Co1759     O1761   2.053   1_455  S
C1762      C1839   1.478       .  S
C1763      C1936   1.470       .  S
C1764      C1796   1.492   1_554  S
C1765      C1882   1.480       .  S
O1766      C1774   1.276       .  A
O1766     Co1786   2.057       .  S
O1767      C1775   1.275       .  A
O1767     Co1787   2.012       .  S
O1768      C1776   1.266       .  A
O1768     Co1788   1.968       .  S
O1769      C1777   1.268   1_554  A
O1770      C1776   1.274       .  A
O1770     Co1787   2.028       .  S
O1771      C1777   1.302       .  A
O1771     Co1786   2.114       .  S
O1772      C1775   1.273       .  A
O1772     Co1789   1.974       .  S
O1773     Co1788   1.987       .  S
C1774      C1799   1.499       .  S
C1775      C1864   1.469       .  S
C1776      C1917   1.481       .  S
C1777      C1819   1.492       .  S
O1778      C1791   1.272       .  A
O1778     Co1786   1.891       .  S
O1779      C1792   1.255       .  A
O1779     Co1787   1.945       .  S
O1780      C1793   1.277       .  A
O1782      C1794   1.256       .  A
O1782     Co1787   1.978       .  S
O1783      C1793   1.264       .  A
O1783     Co1786   1.973       .  S
O1784      C1791   1.296       .  A
O1785      C1792   1.274       .  A
O1785     Co1788   2.039       .  S
Co1787     O1790   2.019       .  S
Co1788     O1790   2.060       .  S
Co1789     O1790   2.015       .  S
C1791      C1868   1.467       .  S
C1792      C1829   1.479       .  S
C1793      C1922   1.483       .  S
C1794      C1809   1.483       .  S
C1795      C1796   1.411       .  A
C1795      C1800   1.415       .  A
C1795      H1801   1.082       .  S
C1797      C1798   1.407       .  A
C1797      H1802   1.083       .  S
C1798      H1803   1.083       .  S
C1799      C1800   1.410       .  A
C1800      H1804   1.084       .  S
C1805      C1806   1.394       .  A
C1805      C1810   1.393       .  A
C1805      H1811   1.083       .  S
C1807      C1808   1.398       .  A
C1807      H1812   1.085       .  S
C1808      H1813   1.083       .  S
C1809      C1810   1.407       .  A
C1810      H1814   1.083       .  S
C1815      C1816   1.405   1_554  A
C1815      C1820   1.404       .  A
C1815      H1821   1.080       .  S
C1816      C1817   1.407       .  A
C1817      C1818   1.402       .  A
C1817      H1822   1.086       .  S
C1818      C1819   1.406       .  A
C1818      H1823   1.080       .  S
C1819      C1820   1.409   1_556  A
C1820      H1824   1.086       .  S
C1825      C1826   1.410       .  A
C1825      C1830   1.403       .  A
C1825      H1831   1.083       .  S
C1826      C1827   1.399       .  A
C1827      C1828   1.394       .  A
C1827      H1832   1.085       .  S
C1828      C1829   1.409       .  A
C1828      H1833   1.082       .  S
C1829      C1830   1.402       .  A
C1830      H1834   1.084       .  S
C1835      C1836   1.403   1_556  A
C1835      C1840   1.400       .  A
C1835      H1841   1.085       .  S
C1836      C1837   1.403       .  A
C1837      C1838   1.392       .  A
C1837      H1842   1.083       .  S
C1838      C1839   1.405       .  A
C1838      H1843   1.083       .  S
C1839      C1840   1.407   1_554  A
C1840      H1844   1.081       .  S
C1845      C1846   1.407       .  A
C1845      C1850   1.403       .  A
C1845      H1851   1.082       .  S
C1846      C1847   1.404       .  A
C1847      C1848   1.397       .  A
C1847      H1852   1.086       .  S
C1848      C1849   1.405       .  A
C1848      H1853   1.082       .  S
C1849      C1850   1.404       .  A
C1850      H1854   1.085       .  S
C1855      H1857   1.086   1_545  S
C1855      C1856   1.353       .  D
C1856      H1858   1.086       .  S
C1859      H1861   1.086       .  S
C1859      C2514   1.346   1_545  D
C1860      H1862   1.083       .  S
C1860      C2513   1.338       .  D
C1863      H1865   1.084       .  S
C1863      C1864   1.338       .  D
C1864      H1866   1.085       .  S
C1867      H1869   1.086       .  S
C1867      C1868   1.343       .  D
C1868      H1870   1.085       .  S
C1871      C1872   1.400       .  A
C1871      C1876   1.398       .  A
C1871      H1877   1.085       .  S
C1872      C1873   1.398       .  A
C1873      C1874   1.387       .  A
C1873      H1878   1.085       .  S
C1874      C1875   1.403       .  A
C1874      H1879   1.081       .  S
C1875      C1876   1.404       .  A
C1876      H1880   1.082       .  S
C1881      H1883   1.087       .  S
C1881      C1882   1.346       .  D
C1885      C1886   1.341       .  D
C1886      H1888   1.086       .  S
C1889      C1890   1.406       .  A
C1889      C1894   1.394       .  A
C1889      H1895   1.081       .  S
C1890      C1891   1.405       .  A
C1891      C1892   1.404       .  A
C1891      H1896   1.085       .  S
C1892      C1893   1.405       .  A
C1892      H1897   1.081       .  S
C1893      C1894   1.400       .  A
C1894      H1898   1.085       .  S
C1899      H1901   1.088       .  S
C1899      C1900   1.340       .  D
C1900      H2556   1.086   1_545  S
H1902      C2554   1.076       .  S
C1903      H1905   1.087       .  S
C1903      C1904   1.340   1_565  D
C1904      H2560   1.086       .  S
C1904      C2370   1.470   1_545  S
H1906      C2558   1.089       .  S
C1907      C1908   1.402       .  A
C1907      C1912   1.406       .  A
C1907      H1913   1.086       .  S
C1908      C1909   1.407       .  A
C1909      C1910   1.396       .  A
C1909      H1914   1.078       .  S
C1910      C1911   1.401       .  A
C1910      H1915   1.090       .  S
C1911      C1912   1.408       .  A
C1912      H1916   1.080       .  S
C1917      H1919   1.084       .  S
C1917      C1918   1.343       .  D
C1918      H1920   1.085       .  S
C1921      H1923   1.087       .  S
C1921      C1922   1.353       .  D
C1922      H1924   1.088       .  S
C1925      C1926   1.402       .  A
C1925      C1930   1.396       .  A
C1925      H1931   1.082       .  S
C1926      C1927   1.405       .  A
C1927      C1928   1.405       .  A
C1927      H1932   1.084       .  S
C1928      C1929   1.407       .  A
C1928      H1933   1.081       .  S
C1929      C1930   1.407       .  A
C1930      H1934   1.082       .  S
C1935      H1937   1.090   1_655  S
C1935      C1936   1.346       .  D
C1939      H1941   1.086       .  S
C1939      C1940   1.338       .  D
C1940      H1942   1.085       .  S
C1943      C1944   1.405       .  A
C1943      C1948   1.404       .  A
C1943      H1949   1.081       .  S
C1944      C1945   1.403       .  A
C1945      C1946   1.395       .  A
C1945      H1950   1.082       .  S
C1946      C1947   1.402       .  A
C1946      H1951   1.084       .  S
C1947      C1948   1.402       .  A
C1948      H1952   1.084       .  S
C1953      C1954   1.404       .  A
C1953      C1958   1.396       .  A
C1953      H1959   1.079       .  S
C1954      C1955   1.406       .  A
C1955      C1956   1.399       .  A
C1955      H1960   1.081       .  S
C1956      C1957   1.405       .  A
C1956      H1961   1.083       .  S
C1957      C1958   1.406       .  A
C1958      H1962   1.083       .  S
C1963      C1969   1.528       .  S
C1963      C1967   1.539   1_655  S
C1964      H1971   1.086       .  S
C1964      C1965   1.362       .  D
C1965      C1966   1.539       .  S
C1965      C2271   1.474       .  S
C1966      C1968   1.546       .  S
C1966      H1972   1.110       .  S
C1967      H1973   1.086       .  S
C1969      H1974   1.087       .  S
C1969      C1970   1.366       .  D
C1970      C2281   1.483       .  S
C1975      C1976   1.535       .  S
C1975      C1981   1.530       .  S
C1975      C1979   1.540       .  S
C1975      C2248   1.518       .  S
C1976      H1983   1.088       .  S
C1976      C1977   1.370       .  D
C1977      C1978   1.531       .  S
C1977      C2253   1.472       .  S
C1978      C1982   1.535       .  S
C1978      C1980   1.538       .  S
C1978      H1984   1.111       .  S
C1979      H1985   1.086       .  S
C1979      C1980   1.366       .  D
C1980      C2245   1.477       .  S
C1981      H1986   1.088       .  S
C1981      C1982   1.365       .  D
C1982      C2274   1.474       .  S
C1987      C1993   1.530       .  S
C1987      C1991   1.543       .  S
C1987      C2230   1.526       .  S
C1988      H1995   1.087       .  S
C1988      C1989   1.361       .  D
C1989      C2235   1.468       .  S
C1990      C1994   1.544       .  S
C1990      C1992   1.539       .  S
C1990      H1996   1.111       .  S
C1991      H1997   1.078       .  S
C1991      C1992   1.375       .  D
C1992      C2226   1.483       .  S
C1993      H1998   1.083       .  S
C1993      C1994   1.360       .  D
C1994      C2256   1.477       .  S
C1999      C2005   1.532       .  S
C1999      C2003   1.531       .  S
C1999      C2212   1.500       .  S
C2000      H2007   1.087       .  S
C2000      C2001   1.368       .  D
C2001      C2002   1.541       .  S
C2001      C2217   1.478       .  S
C2002      C2004   1.532   1_655  S
C2002      H2008   1.111       .  S
C2003      H2009   1.087       .  S
C2004      C2208   1.474       .  S
C2005      H2010   1.086       .  S
C2005      C2006   1.366       .  D
C2006      C2238   1.468       .  S
C2011      C2012   1.525       .  S
C2011      C2017   1.527       .  S
C2011      C2015   1.512       .  S
C2011      C2194   1.486       .  S
C2012      H2019   1.084       .  S
C2012      C2013   1.364       .  D
C2013      C2014   1.548       .  S
C2013      C2199   1.484       .  S
C2014      C2018   1.541       .  S
C2014      C2016   1.554       .  S
C2014      H2020   1.108       .  S
C2015      H2021   1.096       .  S
C2015      C2016   1.358       .  D
C2016      C2190   1.466       .  S
C2017      H2022   1.089       .  S
C2017      C2018   1.362       .  D
C2018      C2220   1.474       .  S
C2023      C2029   1.523       .  S
C2023      C2027   1.536       .  S
C2023      C2182   1.519       .  S
C2024      H2031   1.086       .  S
C2024      C2025   1.361       .  D
C2025      C2202   1.486       .  S
C2026      C2030   1.545       .  S
C2026      C2028   1.550       .  S
C2026      H2032   1.109       .  S
C2027      H2033   1.072       .  S
C2027      C2028   1.369       .  D
C2028      C2186   1.494       .  S
C2029      H2034   1.087       .  S
C2029      C2030   1.363       .  D
C2030      C2284   1.484       .  S
O2035      C2043   1.281   1_565  A
O2035     Co2055   2.034       .  S
O2036      C2044   1.261       .  A
O2036     Co2056   1.975   1_556  S
O2037      C2045   1.277       .  A
O2037     Co2057   2.025       .  S
O2038     Co2058   1.987       .  S
O2039      C2045   1.267       .  A
O2039     Co2056   1.975   1_556  S
O2040      C2046   1.270       .  A
O2040     Co2055   2.013       .  S
O2041      C2371   1.276       .  A
O2041     Co2058   1.913       .  S
O2042     Co2384   1.986       .  S
C2044      O2368   1.271       .  A
C2044      C2173   1.481       .  S
C2045      C2153   1.486       .  S
C2046      C2187   1.479       .  S
O2047      C2060   1.259       .  A
O2047     Co2055   1.956       .  S
O2048      C2061   1.262       .  A
O2048     Co2056   2.004       .  S
O2049      C2389   1.244       .  A
O2050      C2063   1.256       .  A
O2050     Co2385   1.974   1_554  S
O2051      C2063   1.270       .  A
O2051     Co2056   2.018       .  S
O2052      C2062   1.251       .  A
O2052     Co2055   1.957       .  S
O2053      C2060   1.273       .  A
O2054      C2061   1.260       .  A
O2054     Co2057   1.999   1_554  S
Co2056     O2386   2.073   1_554  S
Co2057     O2369   1.966       .  S
Co2057     O2386   1.943       .  S
Co2058     O2377   1.953       .  S
Co2058     O2059   1.954       .  S
O2059     Co2383   2.240       .  S
O2059     Co2384   1.950       .  S
C2060      C2143   1.488       .  S
C2061      C2227   1.476       .  S
C2062      O2376   1.263       .  A
C2062      C2163   1.478       .  S
C2063      C2183   1.469       .  S
O2064      C2072   1.258       .  A
O2064     Co2084   1.960       .  S
O2065      C2073   1.252   1_556  A
O2065     Co2085   1.963   1_556  S
O2066      C2074   1.275       .  A
O2066     Co2086   2.042   1_655  S
O2067      C2075   1.291       .  A
O2067     Co2414   2.093       .  S
O2068      C2074   1.260   1_556  A
O2068     Co2085   1.963   1_556  S
O2069      C2075   1.261       .  A
O2069     Co2084   1.888       .  S
O2070      C2400   1.258       .  A
O2071     Co2413   2.019       .  S
C2072      C2267   1.473       .  S
C2073      O2397   1.260       .  A
C2073      C2133   1.451       .  S
C2074      C2176   1.483   1_554  S
C2075      C2213   1.461       .  S
O2076      C2089   1.294       .  A
O2076     Co2084   2.090       .  S
O2077      C2090   1.274       .  A
O2077     Co2085   2.029       .  S
O2078      C2418   1.263   1_554  A
O2079     Co2087   1.957       .  S
O2080      C2092   1.279       .  A
O2080     Co2085   2.027       .  S
O2081      C2091   1.261       .  A
O2081     Co2084   2.012       .  S
O2082      C2089   1.266       .  A
O2082     Co2414   1.909       .  S
O2083      C2090   1.265   1_455  A
O2083     Co2086   1.975       .  S
Co2085     O2088   2.001       .  S
Co2086     O2398   2.030   1_554  S
Co2086     O2088   2.026   1_455  S
Co2087     O2394   2.114   1_554  S
Co2087     O2409   1.919       .  S
C2089      C2166   1.472       .  S
C2090      C2263   1.483       .  S
C2091      O2405   1.250       .  A
C2091      C2123   1.469       .  S
C2092      C2209   1.471       .  S
O2093      C2101   1.272       .  A
O2093     Co2113   1.994       .  S
O2094      C2102   1.250       .  A
O2094     Co2114   1.954       .  S
O2095      C2103   1.262       .  A
O2095     Co2115   1.985       .  S
O2096      C2104   1.274       .  A
O2096     Co2443   1.925       .  S
O2097      C2103   1.268       .  A
O2097     Co2114   2.013       .  S
O2098      C2104   1.298       .  A
O2098     Co2113   2.087       .  S
O2099      C2102   1.248       .  A
O2099     Co2116   1.988   1_554  S
O2100      C2428   1.262   1_554  A
O2100     Co2115   1.960       .  S
C2101      O2427   1.273       .  A
C2101      C2126   1.468       .  S
C2102      C2191   1.463       .  S
C2103      C2244   1.474       .  S
C2104      C2146   1.481       .  S
O2105      C2118   1.273       .  A
O2105     Co2113   1.881       .  S
O2106      C2119   1.261       .  A
O2106     Co2114   1.989   1_556  S
O2107      C2120   1.267       .  A
O2107     Co2442   2.015       .  S
O2108      C2448   1.310       .  A
O2108     Co2443   2.121       .  S
O2109      C2121   1.271       .  A
O2109     Co2114   1.904       .  S
O2110      C2120   1.258       .  A
O2110     Co2113   1.983       .  S
O2111      C2118   1.289       .  A
O2111     Co2443   2.053       .  S
O2112      C2119   1.269   1_554  A
O2112     Co2115   2.022       .  S
Co2113     O2444   1.955       .  S
Co2114     O2117   1.920       .  S
Co2115     O2434   2.016   1_554  S
Co2115     O2117   2.077       .  S
Co2116     O2423   2.003       .  S
Co2116     O2435   2.038       .  S
Co2116     O2438   2.034       .  S
Co2116     O2117   2.254   1_556  S
O2117     Co2440   1.920   1_554  S
C2118      C2195   1.442       .  S
C2119      C2156   1.486       .  S
C2120      C2249   1.480       .  S
C2121      O2435   1.288   1_554  A
C2121      C2136   1.461       .  S
C2122      C2123   1.402       .  A
C2122      C2127   1.399       .  A
C2122      H2128   1.082       .  S
C2123      C2451   1.406       .  A
C2124      C2450   1.398   1_554  A
C2124      C2125   1.388       .  A
C2124      H2129   1.086       .  S
C2125      C2453   1.404   1_554  A
C2125      H2130   1.081       .  S
C2126      C2452   1.400       .  A
C2126      C2127   1.406       .  A
C2127      H2131   1.084       .  S
C2132      C2133   1.401       .  A
C2132      C2137   1.393       .  A
C2132      H2138   1.083       .  S
C2133      C2461   1.399   1_554  A
C2134      C2460   1.401       .  A
C2134      C2135   1.392       .  A
C2134      H2139   1.084       .  S
C2135      C2463   1.402       .  A
C2135      H2140   1.083       .  S
C2136      C2462   1.404   1_554  A
C2136      C2137   1.402       .  A
C2137      H2141   1.084       .  S
C2142      C2143   1.409       .  A
C2142      C2147   1.409       .  A
C2142      H2148   1.084       .  S
C2143      C2144   1.407       .  A
C2144      C2145   1.392       .  A
C2144      H2149   1.084       .  S
C2145      C2146   1.401       .  A
C2145      H2150   1.082       .  S
C2146      C2147   1.408       .  A
C2147      H2151   1.082       .  S
C2152      C2153   1.406       .  A
C2152      C2157   1.403   1_556  A
C2152      H2158   1.083   1_556  S
C2153      C2154   1.407       .  A
C2154      C2155   1.398       .  A
C2154      H2159   1.086       .  S
C2155      C2156   1.405       .  A
C2155      H2160   1.080       .  S
C2156      C2157   1.408   1_556  A
C2157      H2161   1.082       .  S
C2162      C2163   1.404       .  A
C2162      C2167   1.403       .  A
C2162      H2168   1.083       .  S
C2163      C2164   1.408       .  A
C2164      C2165   1.390       .  A
C2164      H2169   1.082       .  S
C2165      C2166   1.398       .  A
C2165      H2170   1.084       .  S
C2166      C2167   1.407       .  A
C2167      H2171   1.083       .  S
C2172      C2173   1.403       .  A
C2172      C2177   1.397       .  A
C2172      H2178   1.083       .  S
C2173      C2174   1.407   1_556  A
C2174      C2175   1.408       .  A
C2174      H2179   1.084       .  S
C2175      C2176   1.407   1_554  A
C2175      H2180   1.084       .  S
C2176      C2177   1.404       .  A
C2177      H2181   1.084       .  S
C2182      H2184   1.087       .  S
C2182      C2183   1.344       .  D
C2183      H2185   1.080       .  S
C2186      H2188   1.080       .  S
C2187      H2189   1.089       .  S
C2190      H2192   1.110       .  S
C2190      C2191   1.328       .  D
C2191      H2193   1.108       .  S
C2194      H2196   1.087       .  S
C2194      C2195   1.332       .  D
C2195      H2197   1.087       .  S
C2198      C2199   1.400       .  A
C2198      C2203   1.396       .  A
C2198      H2204   1.079       .  S
C2199      C2200   1.409       .  A
C2200      C2201   1.396       .  A
C2200      H2205   1.086       .  S
C2201      C2202   1.402       .  A
C2201      H2206   1.078       .  S
C2202      C2203   1.410       .  A
C2203      H2207   1.085       .  S
C2208      H2210   1.089       .  S
C2208      C2209   1.339   1_455  D
C2212      C2213   1.342       .  D
C2213      H2215   1.083       .  S
C2216      C2217   1.401       .  A
C2216      C2221   1.388       .  A
C2216      H2222   1.083       .  S
C2217      C2218   1.407       .  A
C2218      C2219   1.405       .  A
C2218      H2223   1.083       .  S
C2219      C2220   1.403       .  A
C2219      H2224   1.082       .  S
C2220      C2221   1.402       .  A
C2221      H2225   1.082       .  S
C2226      H2228   1.089       .  S
C2226      C2227   1.340       .  D
C2230      H2232   1.091       .  S
C2230      C2231   1.352       .  D
C2234      C2235   1.402       .  A
C2234      C2239   1.397       .  A
C2234      H2240   1.084       .  S
C2235      C2236   1.404       .  A
C2236      C2237   1.397       .  A
C2236      H2241   1.082       .  S
C2237      C2238   1.399       .  A
C2237      H2242   1.085       .  S
C2238      C2239   1.402       .  A
C2239      H2243   1.084       .  S
C2244      H2246   1.086       .  S
C2244      C2245   1.344       .  D
C2245      H2247   1.086       .  S
C2248      H2250   1.080       .  S
C2248      C2249   1.351       .  D
C2249      H2251   1.080       .  S
C2252      C2253   1.405       .  A
C2252      C2257   1.401       .  A
C2252      H2258   1.082       .  S
C2253      C2254   1.398       .  A
C2254      C2255   1.391       .  A
C2254      H2259   1.086       .  S
C2255      C2256   1.407       .  A
C2255      H2260   1.083       .  S
C2256      C2257   1.401       .  A
C2257      H2261   1.085       .  S
C2262      H2264   1.083       .  S
C2262      C2263   1.346   1_455  D
C2266      H2268   1.088       .  S
C2266      C2267   1.340       .  D
C2267      H2269   1.087       .  S
C2270      C2271   1.404       .  A
C2270      C2275   1.391       .  A
C2270      H2276   1.081       .  S
C2271      C2272   1.402       .  A
C2272      C2273   1.402       .  A
C2272      H2277   1.086       .  S
C2273      C2274   1.404       .  A
C2273      H2278   1.080       .  S
C2274      C2275   1.401       .  A
C2275      H2279   1.085       .  S
C2280      C2281   1.400       .  A
C2280      C2285   1.392       .  A
C2280      H2286   1.086       .  S
C2281      C2282   1.411       .  A
C2282      C2283   1.399       .  A
C2282      H2287   1.080       .  S
C2283      C2284   1.401       .  A
C2283      H2288   1.083       .  S
C2284      C2285   1.408       .  A
C2285      H2289   1.080       .  S
C2290      C2296   1.525       .  S
C2290      C2294   1.543       .  S
C2291      H2298   1.088       .  S
C2291      C2292   1.363       .  D
C2292      C2293   1.536       .  S
C2292      C2598   1.481       .  S
C2293      C2295   1.549       .  S
C2293      H2299   1.109       .  S
C2294      H2300   1.086       .  S
C2296      H2301   1.088       .  S
C2296      C2297   1.367       .  D
C2297      C2608   1.480       .  S
C2302      C2303   1.528       .  S
C2302      C2308   1.530       .  S
C2302      C2306   1.544       .  S
C2302      C2575   1.517       .  S
C2303      H2310   1.086       .  S
C2303      C2304   1.367       .  D
C2304      C2305   1.540       .  S
C2304      C2580   1.480       .  S
C2305      C2309   1.540       .  S
C2305      C2307   1.534       .  S
C2305      H2311   1.111       .  S
C2306      H2312   1.088       .  S
C2306      C2307   1.373       .  D
C2307      C2572   1.474       .  S
C2308      H2313   1.087       .  S
C2308      C2309   1.364       .  D
C2309      C2601   1.483       .  S
C2314      C2320   1.528       .  S
C2314      C2318   1.528       .  S
C2314      C2557   1.512       .  S
C2315      H2322   1.088       .  S
C2315      C2316   1.362       .  D
C2316      C2562   1.475       .  S
C2317      C2321   1.546       .  S
C2317      C2319   1.561       .  S
C2317      H2323   1.111       .  S
C2318      H2324   1.084       .  S
C2318      C2319   1.370       .  D
C2319      C2553   1.491       .  S
C2320      H2325   1.084       .  S
C2320      C2321   1.365       .  D
C2321      C2583   1.482       .  S
C2326      C2332   1.532       .  S
C2326      C2330   1.535       .  S
C2326      C2539   1.515       .  S
C2327      H2334   1.089       .  S
C2327      C2328   1.366       .  D
C2328      C2329   1.542   1_655  S
C2328      C2544   1.478       .  S
C2329      C2331   1.530       .  S
C2329      H2335   1.112       .  S
C2330      H2336   1.092       .  S
C2331      C2535   1.470       .  S
C2332      H2337   1.088       .  S
C2332      C2333   1.364       .  D
C2333      C2565   1.474       .  S
C2338      C2339   1.526       .  S
C2338      C2344   1.532       .  S
C2338      C2342   1.518       .  S
C2338      C2521   1.495       .  S
C2339      H2346   1.085       .  S
C2339      C2340   1.365       .  D
C2340      C2341   1.545       .  S
C2340      C2526   1.480       .  S
C2341      C2345   1.536       .  S
C2341      C2343   1.542       .  S
C2341      H2347   1.110       .  S
C2342      H2348   1.088       .  S
C2342      C2343   1.365       .  D
C2343      C2517   1.466       .  S
C2344      H2349   1.088       .  S
C2344      C2345   1.363       .  D
C2345      C2547   1.474       .  S
C2350      C2356   1.533       .  S
C2350      C2354   1.538       .  S
C2350      C2509   1.509       .  S
C2351      H2358   1.086       .  S
C2351      C2352   1.361       .  D
C2352      C2529   1.481       .  S
C2353      C2357   1.539       .  S
C2353      C2355   1.534       .  S
C2353      H2359   1.108       .  S
C2354      H2360   1.089       .  S
C2354      C2355   1.373       .  D
C2355      C2513   1.478       .  S
C2356      H2361   1.086       .  S
C2356      C2357   1.369       .  D
C2357      C2611   1.487       .  S
O2362      C2370   1.276       .  A
O2362     Co2382   2.028       .  S
O2363      C2371   1.300       .  A
O2363     Co2383   2.074       .  S
O2364      C2372   1.273       .  A
O2364     Co2384   1.906       .  S
O2365     Co2385   1.976       .  S
O2366      C2372   1.297       .  A
O2366     Co2383   2.075       .  S
O2367      C2373   1.272       .  A
O2367     Co2382   2.024       .  S
O2368     Co2385   2.031       .  S
C2371      C2500   1.485       .  S
C2372      C2480   1.486       .  S
C2373      C2514   1.486       .  S
O2374      C2387   1.252       .  A
O2374     Co2382   1.952       .  S
O2375      C2388   1.256       .  A
O2375     Co2383   2.013       .  S
O2377      C2390   1.243       .  A
O2378      C2390   1.250       .  A
O2378     Co2383   1.990       .  S
O2379      C2389   1.258   1_554  A
O2379     Co2382   1.982   1_554  S
O2380      C2387   1.273       .  A
O2381      C2388   1.244       .  A
O2381     Co2384   1.974       .  S
Co2385     O2386   1.944       .  S
C2387      C2470   1.492       .  S
C2388      C2554   1.489       .  S
C2389      C2490   1.463   1_556  S
C2390      C2510   1.460       .  S
O2391      C2399   1.263       .  A
O2391     Co2411   1.955       .  S
O2392      C2400   1.255       .  A
O2392     Co2412   1.972       .  S
O2393      C2401   1.277       .  A
O2393     Co2413   2.040   1_655  S
O2394      C2402   1.295       .  A
O2395      C2401   1.261       .  A
O2395     Co2412   1.958       .  S
O2396      C2402   1.262       .  A
O2396     Co2411   1.890       .  S
C2399      C2594   1.464       .  S
C2400      C2460   1.463       .  S
C2401      C2503   1.490       .  S
C2402      C2540   1.475       .  S
O2403      C2416   1.295       .  A
O2403     Co2411   2.100   1_554  S
O2404      C2417   1.274       .  A
O2404     Co2412   2.033       .  S
O2406     Co2414   1.954       .  S
O2407      C2419   1.276       .  A
O2407     Co2412   2.010       .  S
O2408      C2418   1.259       .  A
O2408     Co2411   1.984       .  S
O2409      C2416   1.267       .  A
O2410      C2417   1.260   1_455  A
O2410     Co2413   1.958       .  S
Co2412     O2415   2.018       .  S
Co2413     O2415   2.034   1_455  S
C2416      C2493   1.485       .  S
C2417      C2590   1.484       .  S
C2418      C2450   1.464       .  S
C2419      C2536   1.464       .  S
O2420      C2428   1.269       .  A
O2420     Co2440   2.004       .  S
O2421      C2429   1.256       .  A
O2421     Co2441   2.005       .  S
O2422      C2430   1.273       .  A
O2422     Co2442   1.979       .  S
O2423      C2431   1.251       .  A
O2424      C2430   1.276       .  A
O2424     Co2441   2.006       .  S
O2425      C2431   1.246       .  A
O2425     Co2440   1.975       .  S
O2426      C2429   1.245       .  A
O2426     Co2443   1.969       .  S
O2427     Co2442   1.982       .  S
C2428      C2453   1.464       .  S
C2429      C2518   1.451       .  S
C2430      C2571   1.476       .  S
C2431      C2473   1.479       .  S
O2432      C2445   1.272       .  A
O2432     Co2440   1.895       .  S
O2433      C2446   1.274       .  A
O2433     Co2441   1.979       .  S
O2434      C2447   1.267       .  A
O2436      C2448   1.278       .  A
O2436     Co2441   1.858       .  S
O2437      C2447   1.257       .  A
O2437     Co2440   1.987       .  S
O2438      C2445   1.288       .  A
O2439      C2446   1.279       .  A
O2439     Co2442   2.017       .  S
Co2441     O2444   1.886       .  S
Co2442     O2444   1.999       .  S
Co2443     O2444   2.016       .  S
C2445      C2522   1.443       .  S
C2446      C2483   1.487       .  S
C2447      C2576   1.476       .  S
C2448      C2463   1.470       .  S
C2449      C2450   1.407       .  A
C2449      C2454   1.396       .  A
C2449      H2455   1.082       .  S
C2451      C2452   1.391       .  A
C2451      H2456   1.083       .  S
C2452      H2457   1.083       .  S
C2453      C2454   1.401       .  A
C2454      H2458   1.085       .  S
C2459      C2460   1.401       .  A
C2459      C2464   1.402       .  A
C2459      H2465   1.080       .  S
C2461      C2462   1.392       .  A
C2461      H2466   1.084       .  S
C2462      H2467   1.083       .  S
C2463      C2464   1.406       .  A
C2464      H2468   1.084       .  S
C2469      C2470   1.407       .  A
C2469      C2474   1.407       .  A
C2469      H2475   1.081       .  S
C2470      C2471   1.410   1_556  A
C2471      C2472   1.396       .  A
C2471      H2476   1.086       .  S
C2472      C2473   1.400   1_554  A
C2472      H2477   1.080       .  S
C2473      C2474   1.408       .  A
C2474      H2478   1.085       .  S
C2479      C2480   1.405       .  A
C2479      C2484   1.401       .  A
C2479      H2485   1.080       .  S
C2480      C2481   1.408       .  A
C2481      C2482   1.401       .  A
C2481      H2486   1.084       .  S
C2482      C2483   1.406       .  A
C2482      H2487   1.082       .  S
C2483      C2484   1.408       .  A
C2484      H2488   1.085       .  S
C2489      C2490   1.407       .  A
C2489      C2494   1.405       .  A
C2489      H2495   1.084   1_554  S
C2490      C2491   1.397       .  A
C2491      C2492   1.390       .  A
C2491      H2496   1.083       .  S
C2492      C2493   1.403       .  A
C2492      H2497   1.082       .  S
C2493      C2494   1.411       .  A
C2494      H2498   1.082       .  S
C2499      C2500   1.404       .  A
C2499      C2504   1.395       .  A
C2499      H2505   1.081       .  S
C2500      C2501   1.408       .  A
C2501      C2502   1.408       .  A
C2501      H2506   1.084       .  S
C2502      C2503   1.408       .  A
C2502      H2507   1.081       .  S
C2503      C2504   1.407       .  A
C2504      H2508   1.084       .  S
C2509      H2511   1.089       .  S
C2509      C2510   1.345       .  D
C2510      H2512   1.089       .  S
C2513      H2515   1.082       .  S
C2514      H2516   1.086       .  S
C2517      H2519   1.085       .  S
C2517      C2518   1.339       .  D
C2518      H2520   1.084       .  S
C2521      H2523   1.088       .  S
C2521      C2522   1.332       .  D
C2522      H2524   1.088       .  S
C2525      C2526   1.400       .  A
C2525      C2530   1.395       .  A
C2525      H2531   1.083       .  S
C2526      C2527   1.408       .  A
C2527      C2528   1.394       .  A
C2527      H2532   1.082       .  S
C2528      C2529   1.400       .  A
C2528      H2533   1.084       .  S
C2529      C2530   1.409       .  A
C2530      H2534   1.082       .  S
C2535      H2537   1.093       .  S
C2535      C2536   1.333   1_455  D
C2539      C2540   1.349       .  D
C2540      H2542   1.080       .  S
C2543      C2544   1.402       .  A
C2543      C2548   1.388       .  A
C2543      H2549   1.080       .  S
C2544      C2545   1.406       .  A
C2545      C2546   1.404       .  A
C2545      H2550   1.084       .  S
C2546      C2547   1.404       .  A
C2546      H2551   1.083       .  S
C2547      C2548   1.401       .  A
C2548      H2552   1.083       .  S
C2553      H2555   1.078       .  S
C2553      C2554   1.344       .  D
C2557      H2559   1.090       .  S
C2557      C2558   1.347       .  D
C2561      C2562   1.405       .  A
C2561      C2566   1.395       .  A
C2561      H2567   1.082       .  S
C2562      C2563   1.404       .  A
C2563      C2564   1.402       .  A
C2563      H2568   1.084       .  S
C2564      C2565   1.402       .  A
C2564      H2569   1.082       .  S
C2565      C2566   1.401       .  A
C2566      H2570   1.085       .  S
C2571      H2573   1.087       .  S
C2571      C2572   1.341       .  D
C2572      H2574   1.087       .  S
C2575      H2577   1.088       .  S
C2575      C2576   1.350       .  D
C2576      H2578   1.088       .  S
C2579      C2580   1.400       .  A
C2579      C2584   1.391       .  A
C2579      H2585   1.081       .  S
C2580      C2581   1.408       .  A
C2581      C2582   1.406       .  A
C2581      H2586   1.084       .  S
C2582      C2583   1.403       .  A
C2582      H2587   1.083       .  S
C2583      C2584   1.405       .  A
C2584      H2588   1.088       .  S
C2589      H2591   1.087   1_655  S
C2589      C2590   1.348       .  D
C2593      H2595   1.088       .  S
C2593      C2594   1.347       .  D
C2594      H2596   1.088       .  S
C2597      C2598   1.406       .  A
C2597      C2602   1.404       .  A
C2597      H2603   1.086       .  S
C2598      C2599   1.402       .  A
C2599      C2600   1.392       .  A
C2599      H2604   1.083       .  S
C2600      C2601   1.405       .  A
C2600      H2605   1.084       .  S
C2601      C2602   1.404       .  A
C2602      H2606   1.082       .  S
C2607      C2608   1.402       .  A
C2607      C2612   1.397       .  A
C2607      H2613   1.083       .  S
C2608      C2609   1.404       .  A
C2609      C2610   1.392       .  A
C2609      H2614   1.080       .  S
C2610      C2611   1.405       .  A
C2610      H2615   1.081       .  S
C2611      C2612   1.408       .  A
C2612      H2616   1.078       .  S
