geometry optimzed in LAMMPS
_audit_creation_date              2020-11-30 
_audit_creation_method            'lammps2cif' 
_symmetry_space_group_name_H-M    'P1' 
_symmetry_Int_Tables_number       1 
_symmetry_cell_setting            triclinic 
loop_ 
_symmetry_equiv_pos_as_xyz 
  x,y,z 
_cell_length_a                    32.65807649289924 
_cell_length_b                    41.65240380173047 
_cell_length_c                    56.206409098545485 
_cell_angle_alpha                 89.96390701893594 
_cell_angle_beta                  107.85144440888864 
_cell_angle_gamma                 89.84334728324565 
loop_ 
_atom_site_label 
_atom_site_type_symbol 
_atom_site_fract_x 
_atom_site_fract_y 
_atom_site_fract_z 
_atom_site_charge 
N1          N  0.51497054  0.57969289  0.51097021    -0.27140
N2          N  0.48598560  0.57999026  0.48859559    -0.35000
C3          C  0.47616333  0.54957616  0.48100646     0.01200
C4          C  0.50021929  0.52917500  0.49947574     0.07220
C5          C  0.52448706  0.54905794  0.51819330    -0.05880
H6          H  0.45312862  0.54287878  0.46337595     0.07890
H7          H  0.54740946  0.54185487  0.53575481     0.09090
Cu8        Cu  0.46044526  0.62168882  0.46965733     0.44170
Cu9        Cu  0.54075665  0.62097912  0.53038360     0.41990
Cu10       Cu  0.50043049  0.69673024  0.50032893     0.43880
N11         N  0.43508734  0.66619692  0.45641895    -0.34530
N12         N  0.44807947  0.69345707  0.46836107    -0.28780
C13         C  0.42288954  0.71751571  0.45597517    -0.04890
C14         C  0.39324128  0.70476429  0.43504493     0.07330
C15         C  0.40196647  0.67226291  0.43579748     0.01130
H16         H  0.42648810  0.74249006  0.46152513     0.08780
H17         H  0.38488668  0.65423315  0.42265972     0.07860
N18         N  0.55287887  0.69279187  0.53221403    -0.35980
N19         N  0.56602308  0.66534366  0.54395431    -0.28160
C20         C  0.59923086  0.67112665  0.56457452    -0.03400
C21         C  0.60784487  0.70362771  0.56551241     0.05210
C22         C  0.57804279  0.71666307  0.54470757     0.03300
H23         H  0.61647017  0.65291353  0.57756765     0.08410
H24         H  0.57433812  0.74171195  0.53930542     0.07240
N25         N  0.48499516  0.44332132  0.48789369    -0.27140
N26         N  0.51399687  0.44304987  0.51026327    -0.35000
C27         C  0.52395140  0.47346962  0.51778276     0.01200
C28         C  0.49996488  0.49385215  0.49927719     0.07220
C29         C  0.47560265  0.47395077  0.48060444    -0.05880
H30         H  0.54696581  0.48018346  0.53541537     0.07890
H31         H  0.45263502  0.48113805  0.46305350     0.09090
Cu32       Cu  0.53923429  0.40138923  0.52937069     0.44170
Cu33       Cu  0.45886049  0.40200572  0.46864953     0.41990
Cu34       Cu  0.49869751  0.32631597  0.49904149     0.43880
N35         N  0.56413878  0.35686714  0.54288361    -0.34530
N36         N  0.55095928  0.32956716  0.53105142    -0.28780
C37         C  0.57581664  0.30546141  0.54361415    -0.04890
C38         C  0.60543341  0.31822895  0.56454881     0.07330
C39         C  0.59704406  0.35078902  0.56361311     0.01130
H40         H  0.57198668  0.28044762  0.53819092     0.08780
H41         H  0.61419657  0.36883771  0.57670678     0.07860
N42         N  0.44614704  0.33025056  0.46721727    -0.35980
N43         N  0.43314911  0.35764983  0.45536331    -0.28140
C44         C  0.39971912  0.35185680  0.43486190    -0.03400
C45         C  0.39081551  0.31940872  0.43412178     0.05210
C46         C  0.42067969  0.30641107  0.45491679     0.03300
H47         H  0.38252220  0.37003786  0.42182139     0.08410
H48         H  0.42419608  0.28140630  0.46045316     0.07240
N49         N  0.75286619  0.23606441  0.70254531    -0.27140
N50         N  0.73189444  0.26342504  0.69578290    -0.35000
C51         C  0.72723315  0.27793012  0.71619194     0.01200
C52         C  0.74625062  0.25877192  0.73676964     0.07220
C53         C  0.76224107  0.23246810  0.72743248    -0.05880
H54         H  0.71075018  0.30054051  0.71598405     0.07890
H55         H  0.77907889  0.21203943  0.73788258     0.09090
Cu56       Cu  0.70864989  0.27873933  0.65890544     0.44170
Cu57       Cu  0.76683302  0.20450973  0.67752778     0.41990
Cu58       Cu  0.72765949  0.22559061  0.61199114     0.43880
N59         N  0.68127514  0.28500246  0.62066786    -0.34530
N60         N  0.68633919  0.26466957  0.60370625    -0.28780
C61         C  0.66025316  0.27341541  0.58108394    -0.04890
C62         C  0.63843731  0.30086298  0.58395012     0.07330
C63         C  0.65263598  0.30768793  0.60919610     0.01130
H64         H  0.65734383  0.26067900  0.56386112     0.08780
H65         H  0.64150782  0.32684556  0.61868403     0.07860
N66         N  0.76693940  0.18634150  0.62559997    -0.35980
N67         N  0.77919743  0.17769055  0.64939395    -0.28160
C68         C  0.80086378  0.14976526  0.65188394    -0.03400
C69         C  0.80300174  0.14081260  0.62864044     0.05210
C70         C  0.78140188  0.16455918  0.61240120     0.03300
H71         H  0.81424910  0.13702980  0.66934561     0.08410
H72         H  0.77518552  0.16531340  0.59234744     0.07240
N73         N  0.74182540  0.28734599  0.79724716    -0.27140
N74         N  0.76283145  0.25998055  0.80393274    -0.35000
C75         C  0.76745412  0.24556283  0.78348960     0.01200
C76         C  0.74838880  0.26476656  0.76295552     0.07220
C77         C  0.73239768  0.29102513  0.77235556    -0.05880
H78         H  0.78395638  0.22297165  0.78364871     0.07890
H79         H  0.71552339  0.31146795  0.76194548     0.09090
Cu80       Cu  0.78629123  0.24443742  0.84072939     0.44170
Cu81       Cu  0.72792567  0.31875401  0.82241483     0.41990
Cu82       Cu  0.76802031  0.29725941  0.88790843     0.43880
N83         N  0.81408822  0.23788191  0.87889116    -0.34530
N84         N  0.80928894  0.25813392  0.89596864    -0.28780
C85         C  0.83561150  0.24928879  0.91849944    -0.04890
C86         C  0.85731007  0.22185688  0.91545327     0.07330
C87         C  0.84279353  0.21514692  0.89019256     0.01130
H88         H  0.83879294  0.26196437  0.93578052     0.08780
H89         H  0.85377804  0.19605889  0.88057350     0.07860
N90         N  0.72863163  0.33655014  0.87459055    -0.35980
N91         N  0.71597982  0.34533760  0.85082383    -0.28160
C92         C  0.69443614  0.37329967  0.84857911    -0.03400
C93         C  0.69280989  0.38214355  0.87195756     0.05210
C94         C  0.71457476  0.35828126  0.88801372     0.03300
H95         H  0.68089575  0.38618719  0.83120281     0.08410
H96         H  0.72125826  0.35744594  0.90809952     0.07240
N97         N  0.85315167  0.07648994  0.60376372    -0.27140
N98         N  0.84097887  0.06062083  0.62082247    -0.35000
C99         C  0.82233181  0.08128607  0.63274710     0.01200
C100        C  0.82213759  0.11138006  0.62234402     0.07220
C101        C  0.84170298  0.10750509  0.60395851    -0.05880
H102        H  0.80823218  0.07462397  0.64712330     0.07890
H103        H  0.84724537  0.12583176  0.59164118     0.09090
Cu104      Cu  0.84486939  0.01101677  0.62466493     0.44170
Cu105      Cu  0.88451579  0.05517519  0.58100631     0.41990
Cu106      Cu  0.87837960  0.96851825  0.57757065     0.43880
N107        N  0.84023373  0.96160143  0.61971580    -0.34530
N108        N  0.84997441  0.94640111  0.60150226    -0.28780
C109        C  0.83903748  0.91531082  0.60169873    -0.04890
C110        C  0.82227997  0.91069505  0.62121765     0.07330
C111        C  0.82363172  0.94044016  0.63230900     0.01130
H112        H  0.84310137  0.89741433  0.58864164     0.08780
H113        H  0.81175377  0.94653823  0.64771693     0.07860
N114        N  0.91028071  0.99612402  0.55825135    -0.35980
N115        N  0.91358042  0.02772069  0.56008538    -0.28160
C116        C  0.93699291  0.03826719  0.54574539    -0.03400
C117        C  0.94827507  0.01207888  0.53403048     0.05210
C118        C  0.93110800  0.98572429  0.54247153     0.03300
H119        H  0.94437172  0.06320310  0.54355837     0.08410
H120        H  0.93358475  0.96084491  0.53752253     0.07240
N121        N  0.64473576  0.44690584  0.89773882    -0.27140
N122        N  0.65586317  0.46253890  0.88019036    -0.35000
C123        C  0.67359403  0.44168696  0.86791347     0.01200
C124        C  0.67428342  0.41169637  0.87855624     0.07220
C125        C  0.65595557  0.41583742  0.89747366    -0.05880
H126        H  0.68671728  0.44815304  0.85308187     0.07890
H127        H  0.65102160  0.39763944  0.91006990     0.09090
Cu128      Cu  0.65178943  0.51208795  0.87594136     0.44170
Cu129      Cu  0.61443410  0.46855727  0.92096247     0.41990
Cu130      Cu  0.61786954  0.55535523  0.92241419     0.43880
N131        N  0.65661548  0.56154832  0.88051839    -0.34530
N132        N  0.64671470  0.57701117  0.89856391    -0.28780
C133        C  0.65783872  0.60803258  0.89826122    -0.04890
C134        C  0.67490275  0.61234117  0.87884309     0.07330
C135        C  0.67353436  0.58248326  0.86791517     0.01130
H136        H  0.65370998  0.62608731  0.91118724     0.08780
H137        H  0.68563308  0.57615421  0.85263806     0.07860
N138        N  0.58535329  0.52814809  0.94154866    -0.35980
N139        N  0.58348077  0.49643539  0.94070115    -0.28160
C140        C  0.55914664  0.48619688  0.95461171    -0.03400
C141        C  0.54518510  0.51277777  0.96459409     0.05210
C142        C  0.56251876  0.53895974  0.95614982     0.03300
H143        H  0.55261357  0.46128080  0.95750331     0.08410
H144        H  0.55886096  0.56397442  0.96030913     0.07240
N145        N  0.75575918  0.78631908  0.70282927    -0.27140
N146        N  0.73479908  0.75902035  0.69622130    -0.35000
C147        C  0.72967449  0.74490857  0.71666096     0.01200
C148        C  0.74834886  0.76425140  0.73710346     0.07220
C149        C  0.76464698  0.79026019  0.72765658    -0.05880
H150        H  0.71304035  0.72245942  0.71655235     0.07890
H151        H  0.78130479  0.81074380  0.73798258     0.09090
Cu152      Cu  0.71188315  0.74325595  0.65948816     0.44170
Cu153      Cu  0.77011556  0.81742426  0.67764665     0.41990
Cu154      Cu  0.73041360  0.79584424  0.61224251     0.43880
N155        N  0.68438560  0.73663660  0.62131505    -0.34530
N156        N  0.68928118  0.75681434  0.60421080    -0.28780
C157        C  0.66302036  0.74805542  0.58167909    -0.04890
C158        C  0.64125487  0.72075342  0.58474751     0.07330
C159        C  0.65567778  0.71403122  0.61002817     0.01130
H160        H  0.65986097  0.76073953  0.56438684     0.08780
H161        H  0.64456272  0.69506998  0.61967098     0.07860
N162        N  0.76938674  0.83519329  0.62545948    -0.35980
N163        N  0.78197766  0.84397380  0.64920563    -0.28160
C164        C  0.80309369  0.87202261  0.65136824    -0.03400
C165        C  0.80446441  0.88095882  0.62794861     0.05210
C166        C  0.78302562  0.85703568  0.61196340     0.03300
H167        H  0.81639197  0.88495900  0.66870485     0.08410
H168        H  0.77620272  0.85625739  0.59186871     0.07240
N169        N  0.74234711  0.73654992  0.79748478    -0.27140
N170        N  0.76326908  0.76385898  0.80412147    -0.35000
C171        C  0.76842139  0.77799981  0.78369612     0.01200
C172        C  0.74979982  0.75866209  0.76323958     0.07220
C173        C  0.73350932  0.73263229  0.77266179    -0.05880
H174        H  0.78502186  0.80046811  0.78382163     0.07890
H175        H  0.71688145  0.71214848  0.76232085     0.09090
Cu176      Cu  0.78603216  0.77960249  0.84087392     0.44170
Cu177      Cu  0.72790964  0.70537392  0.82258541     0.41990
Cu178      Cu  0.76701224  0.72700750  0.88795950     0.43880
N179        N  0.81322721  0.78618383  0.87908031    -0.34530
N180        N  0.80813010  0.76600175  0.89612770    -0.28780
C181        C  0.83419195  0.77473705  0.91871670    -0.04890
C182        C  0.85604354  0.80203055  0.91574476     0.07330
C183        C  0.84187734  0.80877465  0.89046274     0.01130
H184        H  0.83714658  0.76204733  0.93598172     0.08780
H185        H  0.85311608  0.82774942  0.88089143     0.07860
N186        N  0.72818666  0.68764493  0.87467160    -0.35980
N187        N  0.71582552  0.67880862  0.85093980    -0.28160
C188        C  0.69467109  0.65077194  0.84874332    -0.03400
C189        C  0.69304317  0.64192272  0.87212810     0.05210
C190        C  0.71436250  0.66586672  0.88812322     0.03300
H191        H  0.68145375  0.63782200  0.83140566     0.08410
H192        H  0.72092253  0.66672916  0.90819786     0.07240
N193        N  0.01102147  0.94309703  0.01173188    -0.27140
N194        N  0.98202623  0.94319081  0.98935969    -0.35000
C195        C  0.97243762  0.97374613  0.98193815     0.01200
C196        C  0.99666263  0.99381306  0.00051631     0.07220
C197        C  0.02077731  0.97359359  0.01912072    -0.05880
H198        H  0.94949489  0.98076830  0.96433176     0.07890
H199        H  0.04380710  0.98047226  0.03670243     0.09090
Cu200      Cu  0.95629362  0.90179430  0.97016599     0.44170
Cu201      Cu  0.03663801  0.90151007  0.03089291     0.41990
Cu202      Cu  0.99628076  0.82626376  0.00046365     0.43880
N203        N  0.93096893  0.85745938  0.95666953    -0.34530
N204        N  0.94397205  0.83004860  0.96849581    -0.28780
C205        C  0.91886837  0.80616133  0.95597920    -0.04890
C206        C  0.88926437  0.81916412  0.93507461     0.07330
C207        C  0.89792355  0.85165044  0.93598023     0.01130
H208        H  0.92251332  0.78112386  0.96141796     0.08780
H209        H  0.88085471  0.86983497  0.92289968     0.07860
N210        N  0.04876551  0.82967510  0.03234585    -0.35980
N211        N  0.06191724  0.85696611  0.04420808    -0.28160
C212        C  0.09519302  0.85090849  0.06476091    -0.03400
C213        C  0.10384375  0.81838798  0.06553610     0.05210
C214        C  0.07399352  0.80562066  0.04470173     0.03300
H215        H  0.11246068  0.86895687  0.07781490     0.08410
H216        H  0.07031904  0.78063786  0.03917947     0.07240
N217        N  0.06303965  0.16558942  0.04386310    -0.27140
N218        N  0.05008812  0.19293662  0.03192435    -0.35000
C219        C  0.07532272  0.21684938  0.04429250     0.01200
C220        C  0.10497169  0.20393833  0.06521749     0.07220
C221        C  0.09619525  0.17147469  0.06448008    -0.05880
H222        H  0.07174928  0.24184521  0.03873280     0.07890
H223        H  0.11326036  0.15335198  0.07762325     0.09090
Cu224      Cu  0.99774479  0.19663254  0.99997805     0.44170
Cu225      Cu  0.03751112  0.12121523  0.03059336     0.41990
Cu226      Cu  0.95712547  0.12135816  0.96983199     0.43880
N227        N  0.94537219  0.19320909  0.96804871    -0.34530
N228        N  0.93212269  0.16588148  0.95627217    -0.28780
C229        C  0.89901897  0.17192951  0.93562600    -0.04890
C230        C  0.89058623  0.20449045  0.93470431     0.07330
C231        C  0.92038024  0.21728441  0.95554798     0.01130
H232        H  0.88172542  0.15385810  0.92260439     0.08780
H233        H  0.92419440  0.24229803  0.96097284     0.07860
N234        N  0.98257103  0.07983522  0.98915321    -0.35980
N235        N  0.01156908  0.07977793  0.01152579    -0.28160
C236        C  0.02108188  0.04923007  0.01900512    -0.03400
C237        C  0.99680683  0.02913775  0.00046174     0.05210
C238        C  0.97274113  0.04933108  0.98182375     0.03300
H239        H  0.04405005  0.04222946  0.03660925     0.08410
H240        H  0.94973625  0.04242947  0.96424019     0.07240
N241        N  0.25309897  0.28669442  0.20242771    -0.27140
N242        N  0.23215190  0.25938519  0.19585531    -0.35000
C243        C  0.22722485  0.24523922  0.21633379     0.01200
C244        C  0.24602472  0.26457556  0.23676039     0.07220
C245        C  0.26218252  0.29061037  0.22726502    -0.05880
H246        H  0.21066252  0.22276695  0.21626606     0.07890
H247        H  0.27889403  0.31109094  0.23756750     0.09090
Cu248      Cu  0.20907041  0.24366217  0.15912340     0.44170
Cu249      Cu  0.26723461  0.31784004  0.17720939     0.41990
Cu250      Cu  0.22744452  0.29625243  0.11182016     0.43880
N251        N  0.18148840  0.23706315  0.12096063    -0.34530
N252        N  0.18633552  0.25722693  0.10383543    -0.28780
C253        C  0.16006116  0.24843822  0.08131634    -0.04890
C254        C  0.13833314  0.22113535  0.08442018     0.07330
C255        C  0.15279276  0.21444213  0.10970304     0.01130
H256        H  0.15688090  0.26109563  0.06401020     0.08780
H257        H  0.14173254  0.19547556  0.11936672     0.07860
N258        N  0.26645436  0.33556729  0.12502346    -0.35980
N259        N  0.27905355  0.34437400  0.14876299    -0.28160
C260        C  0.30030081  0.37236345  0.15092029    -0.03400
C261        C  0.30175271  0.38121549  0.12750331     0.05210
C262        C  0.28022517  0.35732141  0.11152558     0.03300
H263        H  0.31371719  0.38527476  0.16825734     0.08410
H264        H  0.27350117  0.35647717  0.09143892     0.07240
N265        N  0.24085828  0.23685787  0.29731689    -0.27140
N266        N  0.26181107  0.26417174  0.30385083    -0.35000
C267        C  0.26663809  0.27831101  0.28334890     0.01200
C268        C  0.24777235  0.25897042  0.26293906     0.07220
C269        C  0.23167133  0.23293336  0.27247029    -0.05880
H270        H  0.28321961  0.30076952  0.28339402     0.07890
H271        H  0.21496628  0.21243666  0.26218931     0.09090
Cu272      Cu  0.28518221  0.27988876  0.34056185     0.44170
Cu273      Cu  0.22699082  0.20571496  0.32264245     0.41990
Cu274      Cu  0.26764130  0.22722504  0.38805709     0.43880
N275        N  0.31332258  0.28645519  0.37867417    -0.34530
N276        N  0.30878837  0.26626736  0.39586586    -0.28780
C277        C  0.33543832  0.27500848  0.41829602    -0.04890
C278        C  0.35708783  0.30230083  0.41506586     0.07330
C279        C  0.34218525  0.30903766  0.38980008     0.01130
H280        H  0.33895454  0.26231071  0.43562460     0.08780
H281        H  0.35307636  0.32799005  0.38004382     0.07860
N282        N  0.22857260  0.18787042  0.37497404    -0.35980
N283        N  0.21565568  0.17912135  0.35122104    -0.28160
C284        C  0.19458116  0.15106321  0.34913875    -0.03400
C285        C  0.19356823  0.14208626  0.37261851     0.05210
C286        C  0.21518016  0.16599594  0.38855746     0.03300
H287        H  0.18105880  0.13815010  0.33181303     0.08410
H288        H  0.22228655  0.16674214  0.40867129     0.07240
N289        N  0.35039095  0.57614923  0.10185506    -0.27140
N290        N  0.33920967  0.56054256  0.11939548    -0.35000
C291        C  0.32151773  0.58142777  0.13166734     0.01200
C292        C  0.32090832  0.61141199  0.12102728     0.07220
C293        C  0.33924135  0.60723416  0.10211688    -0.05880
H294        H  0.30838888  0.57499447  0.14650344     0.07890
H295        H  0.34425779  0.62542184  0.08953723     0.09090
Cu296      Cu  0.34321836  0.51099256  0.12365413     0.44170
Cu297      Cu  0.38074344  0.55443869  0.07868707     0.41990
Cu298      Cu  0.37746748  0.46760998  0.07735237     0.43880
N299        N  0.33835161  0.46152933  0.11909904    -0.34530
N300        N  0.34836558  0.44601844  0.10111119    -0.28780
C301        C  0.33716639  0.41501047  0.10141025    -0.04890
C302        C  0.31994363  0.41076427  0.12077046     0.07330
C303        C  0.32129512  0.44064134  0.13166494     0.01130
H304        H  0.34137298  0.39692007  0.08853127     0.08780
H305        H  0.30910521  0.44701397  0.14689771     0.07860
N306        N  0.41001474  0.49481905  0.05822895    -0.35980
N307        N  0.41180331  0.52653619  0.05902741    -0.28160
C308        C  0.43610777  0.53677795  0.04510153    -0.03400
C309        C  0.45013963  0.51019745  0.03515816     0.05210
C310        C  0.43288027  0.48400888  0.04364353     0.03300
H311        H  0.44255365  0.56169745  0.04216223     0.08410
H312        H  0.43658283  0.45899252  0.03950745     0.07240
N313        N  0.14524440  0.94647736  0.39690682    -0.27140
N314        N  0.15741585  0.96235093  0.37985026    -0.35000
C315        C  0.17595340  0.94166984  0.36787656     0.01200
C316        C  0.17607657  0.91156242  0.37824830     0.07220
C317        C  0.15658676  0.91544527  0.39666520    -0.05880
H318        H  0.18999626  0.94832077  0.35347331     0.07890
H319        H  0.15098767  0.89710738  0.40895651     0.09090
Cu320      Cu  0.15356281  0.01196538  0.37604737     0.44170
Cu321      Cu  0.11394462  0.96779725  0.41968560     0.41990
Cu322      Cu  0.11991536  0.05446715  0.42311840     0.43880
N323        N  0.15809516  0.06139160  0.38097903    -0.34530
N324        N  0.14831188  0.07659708  0.39917761    -0.28780
C325        C  0.15916842  0.10770375  0.39894839    -0.04890
C326        C  0.17590605  0.11232289  0.37942083     0.07330
C327        C  0.17463146  0.08256437  0.36836118     0.01130
H328        H  0.15503631  0.12561346  0.41197770     0.08780
H329        H  0.18649905  0.07647090  0.35294832     0.07860
N330        N  0.08814633  0.02679606  0.44248510    -0.35980
N331        N  0.08491464  0.99519629  0.44064623    -0.28160
C332        C  0.06160322  0.98459086  0.45502336    -0.03400
C333        C  0.05031666  0.01074169  0.46677182     0.05210
C334        C  0.06737354  0.03713857  0.45831054     0.03300
H335        H  0.05429684  0.95963981  0.45721131     0.08410
H336        H  0.06485710  0.06200627  0.46327636     0.07240
N337        N  0.25427897  0.73578313  0.20262870    -0.27140
N338        N  0.23317269  0.76311911  0.19600620    -0.35000
C339        C  0.22866929  0.77748560  0.21649682     0.01200
C340        C  0.24791870  0.75827318  0.23699488     0.07220
C341        C  0.26389458  0.73206773  0.22752547    -0.05880
H342        H  0.21210672  0.80003707  0.21639350     0.07890
H343        H  0.28086995  0.71163018  0.23789054     0.09090
Cu344      Cu  0.20937098  0.77863017  0.15922432     0.44170
Cu345      Cu  0.26798054  0.70444962  0.17735940     0.41990
Cu346      Cu  0.22717476  0.72584587  0.11185670     0.43880
N347        N  0.18110550  0.78511011  0.12109962    -0.34530
N348        N  0.18573049  0.76488571  0.10395956    -0.28780
C349        C  0.15909636  0.77368428  0.08149977    -0.04890
C350        C  0.13737192  0.80105236  0.08466093     0.07330
C351        C  0.15220298  0.80777373  0.10991108     0.01130
H352        H  0.15572305  0.76102151  0.06419091     0.08780
H353        H  0.14131185  0.82682269  0.11960890     0.07860
N354        N  0.26672431  0.68660218  0.12509536    -0.35980
N355        N  0.27962173  0.67785984  0.14887174    -0.28160
C356        C  0.30115307  0.64989936  0.15107578    -0.03400
C357        C  0.30251983  0.64100460  0.12765939     0.05210
C358        C  0.28061497  0.66483775  0.11162091     0.03300
H359        H  0.31484478  0.63703941  0.16844996     0.08410
H360        H  0.27370433  0.66561965  0.09151851     0.07240
N361        N  0.24387409  0.78681851  0.29752689    -0.27140
N362        N  0.26490282  0.75946593  0.30420862    -0.35000
C363        C  0.26940264  0.74501301  0.28374276     0.01200
C364        C  0.25021786  0.76419872  0.26321089     0.07220
C365        C  0.23429427  0.79046292  0.27263310    -0.05880
H366        H  0.28591303  0.72243001  0.28388294     0.07890
H367        H  0.21739235  0.81090664  0.26223894     0.09090
Cu368      Cu  0.28852195  0.74413664  0.34105632     0.44170
Cu369      Cu  0.23022405  0.81831635  0.32267918     0.41990
Cu370      Cu  0.27020419  0.79721774  0.38821475     0.43880
N371        N  0.31644993  0.73788720  0.37924312    -0.34530
N372        N  0.31162959  0.75818265  0.39629156    -0.28780
C373        C  0.33808390  0.74946568  0.41882384    -0.04890
C374        C  0.35989574  0.72208183  0.41580526     0.07330
C375        C  0.34530212  0.71526254  0.39056676     0.01130
H376        H  0.34126519  0.76218976  0.43608480     0.08780
H377        H  0.35630764  0.69615891  0.38097169     0.07860
N378        N  0.23087657  0.83649441  0.37474449    -0.35980
N379        N  0.21834071  0.84514375  0.35094862    -0.28160
C380        C  0.19677868  0.87310567  0.34855070    -0.03400
C381        C  0.19499661  0.88208801  0.37185818     0.05210
C382        C  0.21669418  0.85831856  0.38803989     0.03300
H383        H  0.18322843  0.88584885  0.33110838     0.08410
H384        H  0.22317800  0.85758100  0.40811420     0.07240
C385        C  0.45283742  0.50979837  0.99197928    -0.12120
C386        C  0.47532297  0.51000854  0.01758326     0.04880
C387        C  0.52074143  0.51158321  0.02575100    -0.07410
C388        C  0.54242921  0.51321561  0.00774985    -0.08150
C389        C  0.51995292  0.51297663  0.98214359    -0.02710
C390        C  0.47451574  0.51143044  0.97396654     0.04110
N391        N  0.44993582  0.51172260  0.94779945     0.66620
H392        H  0.41802399  0.50901975  0.98606883     0.15520
H393        H  0.57724366  0.51400462  0.01367810     0.15230
N394        N  0.54528592  0.51133074  0.05191347     0.74320
O395        O  0.41218903  0.50061147  0.94074072    -0.39130
O396        O  0.46400857  0.52557637  0.93191609    -0.39070
O397        O  0.53155919  0.49695487  0.06771828    -0.39780
O398        O  0.58272993  0.52298700  0.05902599    -0.39840
C399        C  0.01344355  0.02735879  0.52328789    -0.12120
C400        C  0.97320738  0.01227846  0.51620354     0.04880
C401        C  0.95852166  0.99643244  0.49290059    -0.07410
C402        C  0.98522736  0.99536798  0.47755609    -0.08150
C403        C  0.02544644  0.01047233  0.48463003    -0.02710
C404        C  0.04016496  0.02627708  0.50795026     0.04110
N405        N  0.08269227  0.03976762  0.51688229     0.66620
H406        H  0.02484079  0.03889918  0.54140588     0.15520
H407        H  0.97382238  0.98382511  0.45943910     0.15230
N408        N  0.91603674  0.98287442  0.48399157     0.74320
O409        O  0.09003041  0.06317736  0.53184432    -0.39130
O410        O  0.11408045  0.02576530  0.51264247    -0.39070
O411        O  0.88457441  0.99693213  0.48810171    -0.39780
O412        O  0.90882387  0.95930744  0.46918047    -0.39840
loop_ 
_geom_bond_atom_site_label_1 
_geom_bond_atom_site_label_2 
_geom_bond_distance 
_geom_bond_site_symmetry_2 
_ccdc_geom_bond_type 
N1            N2   1.322       .  A
N1            C5   1.345       .  A
N1           Cu9   2.075       .  S
N2            C3   1.345       .  A
N2           Cu8   2.071       .  S
C3            C4   1.383       .  A
C3            H6   1.082       .  S
C4            C5   1.384       .  A
C4           C28   1.471       .  S
C5            H7   1.082       .  S
Cu8          N11   2.071       .  S
Cu9          N19   2.074       .  S
Cu10         N12   2.071       .  S
Cu10         N18   2.071       .  S
N11          N12   1.322       .  A
N11          C15   1.344       .  A
N12          C13   1.345       .  A
C13          C14   1.382       .  A
C13          H16   1.083       .  S
C14          C15   1.381       .  A
C14         C374   1.466       .  S
C15          H17   1.082       .  S
N18          N19   1.323       .  A
N18          C22   1.345       .  A
N19          C20   1.345       .  A
C20          C21   1.381       .  A
C20          H23   1.082       .  S
C21          C22   1.381       .  A
C21         C158   1.466       .  S
C22          H24   1.082       .  S
N25          N26   1.322       .  A
N25          C29   1.345       .  A
N25         Cu33   2.075       .  S
N26          C27   1.345       .  A
N26         Cu32   2.071       .  S
C27          C28   1.383       .  A
C27          H30   1.082       .  S
C28          C29   1.384       .  A
C29          H31   1.082       .  S
Cu32         N35   2.071       .  S
Cu33         N43   2.074       .  S
Cu34         N36   2.071       .  S
Cu34         N42   2.071       .  S
N35          N36   1.322       .  A
N35          C39   1.344       .  A
N36          C37   1.345       .  A
C37          C38   1.382       .  A
C37          H40   1.083       .  S
C38          C39   1.381       .  A
C38          C62   1.466       .  S
C39          H41   1.082       .  S
N42          N43   1.323       .  A
N42          C46   1.345       .  A
N43          C44   1.345       .  A
C44          C45   1.381       .  A
C44          H47   1.082       .  S
C45          C46   1.381       .  A
C45         C278   1.466       .  S
C46          H48   1.082       .  S
N49          N50   1.322       .  A
N49          C53   1.345       .  A
N49         Cu57   2.075       .  S
N50          C51   1.346       .  A
N50         Cu56   2.076       .  S
C51          C52   1.384       .  A
C51          H54   1.082       .  S
C52          C53   1.384       .  A
C52          C76   1.473       .  S
C53          H55   1.082       .  S
Cu56         N59   2.075       .  S
Cu57         N67   2.074       .  S
Cu58         N60   2.071       .  S
Cu58         N66   2.071       .  S
N59          N60   1.323       .  A
N59          C63   1.345       .  A
N60          C61   1.345       .  A
C61          C62   1.381       .  A
C61          H64   1.083       .  S
C62          C63   1.381       .  A
C63          H65   1.082       .  S
N66          N67   1.323       .  A
N66          C70   1.345       .  A
N67          C68   1.345       .  A
C68          C69   1.381       .  A
C68          H71   1.082       .  S
C69          C70   1.382       .  A
C69         C100   1.467       .  S
C70          H72   1.083       .  S
N73          N74   1.322       .  A
N73          C77   1.346       .  A
N73         Cu81   2.076       .  S
N74          C75   1.346       .  A
N74         Cu80   2.076       .  S
C75          C76   1.384       .  A
C75          H78   1.082       .  S
C76          C77   1.384       .  A
C77          H79   1.082       .  S
Cu80         N83   2.074       .  S
Cu81         N91   2.076       .  S
Cu82         N84   2.071       .  S
Cu82         N90   2.071       .  S
N83          N84   1.323       .  A
N83          C87   1.345       .  A
N84          C85   1.345       .  A
C85          C86   1.381       .  A
C85          H88   1.083       .  S
C86          C87   1.381       .  A
C86         C230   1.466       .  S
C87          H89   1.082       .  S
N90          N91   1.323       .  A
N90          C94   1.345       .  A
N91          C92   1.345       .  A
C92          C93   1.381       .  A
C92          H95   1.082       .  S
C93          C94   1.382       .  A
C93         C124   1.467       .  S
C94          H96   1.083       .  S
N97          N98   1.322       .  A
N97         C101   1.345       .  A
N97        Cu105   2.067       .  S
N98          C99   1.345       .  A
N98        Cu104   2.077       .  S
C99         C100   1.382       .  A
C99         H102   1.082       .  S
C100        C101   1.381       .  A
C101        H103   1.082       .  S
Cu104       N107   2.077   1_545  S
Cu105       N115   2.067       .  S
Cu106       N108   2.070       .  S
Cu106       N114   2.070       .  S
N107        N108   1.323       .  A
N107        C111   1.345       .  A
N108        C109   1.345       .  A
C109        C110   1.381       .  A
C109        H112   1.082       .  S
C110        C111   1.382       .  A
C110        C165   1.468       .  S
C111        H113   1.082       .  S
N114        N115   1.322   1_565  A
N114        C118   1.344       .  A
N115        C116   1.344       .  A
C116        C117   1.381       .  A
C116        H119   1.082       .  S
C117        C118   1.382   1_545  A
C117        C400   1.472       .  S
C118        H120   1.082       .  S
N121        N122   1.323       .  A
N121        C125   1.345       .  A
N121       Cu129   2.070       .  S
N122        C123   1.345       .  A
N122       Cu128   2.077       .  S
C123        C124   1.382       .  A
C123        H126   1.082       .  S
C124        C125   1.381       .  A
C125        H127   1.082       .  S
Cu128       N131   2.077       .  S
Cu129       N139   2.070       .  S
Cu130       N132   2.068       .  S
Cu130       N138   2.067       .  S
N131        N132   1.322       .  A
N131        C135   1.345       .  A
N132        C133   1.345       .  A
C133        C134   1.381       .  A
C133        H136   1.082       .  S
C134        C135   1.382       .  A
C134        C189   1.467       .  S
C135        H137   1.082       .  S
N138        N139   1.323       .  A
N138        C142   1.344       .  A
N139        C140   1.344       .  A
C140        C141   1.380       .  A
C140        H143   1.082       .  S
C141        C142   1.379       .  A
C141        C389   1.466       .  S
C142        H144   1.082       .  S
N145        N146   1.322       .  A
N145        C149   1.346       .  A
N145       Cu153   2.076       .  S
N146        C147   1.346       .  A
N146       Cu152   2.076       .  S
C147        C148   1.384       .  A
C147        H150   1.082       .  S
C148        C149   1.384       .  A
C148        C172   1.474       .  S
C149        H151   1.082       .  S
Cu152       N155   2.075       .  S
Cu153       N163   2.076       .  S
Cu154       N156   2.072       .  S
Cu154       N162   2.072       .  S
N155        N156   1.323       .  A
N155        C159   1.345       .  A
N156        C157   1.345       .  A
C157        C158   1.381       .  A
C157        H160   1.083       .  S
C158        C159   1.381       .  A
C159        H161   1.082       .  S
N162        N163   1.323       .  A
N162        C166   1.345       .  A
N163        C164   1.345       .  A
C164        C165   1.382       .  A
C164        H167   1.082       .  S
C165        C166   1.382       .  A
C166        H168   1.083       .  S
N169        N170   1.322       .  A
N169        C173   1.345       .  A
N169       Cu177   2.076       .  S
N170        C171   1.346       .  A
N170       Cu176   2.077       .  S
C171        C172   1.384       .  A
C171        H174   1.082       .  S
C172        C173   1.384       .  A
C173        H175   1.082       .  S
Cu176       N179   2.076       .  S
Cu177       N187   2.075       .  S
Cu178       N180   2.070       .  S
Cu178       N186   2.070       .  S
N179        N180   1.323       .  A
N179        C183   1.345       .  A
N180        C181   1.345       .  A
C181        C182   1.381       .  A
C181        H184   1.083       .  S
C182        C183   1.381       .  A
C182        C206   1.466       .  S
C183        H185   1.082       .  S
N186        N187   1.322       .  A
N186        C190   1.345       .  A
N187        C188   1.345       .  A
C188        C189   1.382       .  A
C188        H191   1.082       .  S
C189        C190   1.382       .  A
C190        H192   1.083       .  S
N193        N194   1.322   1_454  A
N193        C197   1.345       .  A
N193       Cu201   2.073       .  S
N194        C195   1.345       .  A
N194       Cu200   2.073       .  S
C195        C196   1.383   1_556  A
C195        H198   1.082       .  S
C196        C197   1.383   1_655  A
C196        C237   1.471   1_565  S
C197        H199   1.082       .  S
Cu200       N203   2.072       .  S
Cu201       N211   2.072       .  S
Cu202       N204   2.071   1_554  S
Cu202       N210   2.071   1_655  S
N203        N204   1.323       .  A
N203        C207   1.345       .  A
N204        C205   1.345       .  A
C205        C206   1.381       .  A
C205        H208   1.083       .  S
C206        C207   1.381       .  A
C207        H209   1.082       .  S
N210        N211   1.323       .  A
N210        C214   1.345       .  A
N211        C212   1.344       .  A
C212        C213   1.381       .  A
C212        H215   1.082       .  S
C213        C214   1.381       .  A
C213        C350   1.466       .  S
C214        H216   1.083       .  S
N217        N218   1.323       .  A
N217        C221   1.345       .  A
N217       Cu225   2.073       .  S
N218        C219   1.345       .  A
N218       Cu224   2.070   1_454  S
C219        C220   1.381       .  A
C219        H222   1.082       .  S
C220        C221   1.381       .  A
C220        C254   1.466       .  S
C221        H223   1.082       .  S
Cu224       N227   2.070       .  S
Cu225       N235   2.073       .  S
Cu226       N228   2.072       .  S
Cu226       N234   2.073       .  S
N227        N228   1.323       .  A
N227        C231   1.345       .  A
N228        C229   1.345       .  A
C229        C230   1.381       .  A
C229        H232   1.082       .  S
C230        C231   1.381       .  A
C231        H233   1.083       .  S
N234        N235   1.322   1_656  A
N234        C238   1.345       .  A
N235        C236   1.345       .  A
C236        C237   1.383   1_455  A
C236        H239   1.082       .  S
C237        C238   1.383   1_554  A
C238        H240   1.082       .  S
N241        N242   1.322       .  A
N241        C245   1.345       .  A
N241       Cu249   2.075       .  S
N242        C243   1.346       .  A
N242       Cu248   2.076       .  S
C243        C244   1.384       .  A
C243        H246   1.082       .  S
C244        C245   1.384       .  A
C244        C268   1.473       .  S
C245        H247   1.082       .  S
Cu248       N251   2.075       .  S
Cu249       N259   2.075       .  S
Cu250       N252   2.071       .  S
Cu250       N258   2.071       .  S
N251        N252   1.323       .  A
N251        C255   1.345       .  A
N252        C253   1.345       .  A
C253        C254   1.381       .  A
C253        H256   1.083       .  S
C254        C255   1.381       .  A
C255        H257   1.082       .  S
N258        N259   1.323       .  A
N258        C262   1.345       .  A
N259        C260   1.345       .  A
C260        C261   1.381       .  A
C260        H263   1.082       .  S
C261        C262   1.382       .  A
C261        C302   1.467       .  S
C262        H264   1.083       .  S
N265        N266   1.322       .  A
N265        C269   1.346       .  A
N265       Cu273   2.076       .  S
N266        C267   1.346       .  A
N266       Cu272   2.075       .  S
C267        C268   1.384       .  A
C267        H270   1.082       .  S
C268        C269   1.384       .  A
C269        H271   1.082       .  S
Cu272       N275   2.074       .  S
Cu273       N283   2.076       .  S
Cu274       N276   2.072       .  S
Cu274       N282   2.072       .  S
N275        N276   1.323       .  A
N275        C279   1.345       .  A
N276        C277   1.345       .  A
C277        C278   1.381       .  A
C277        H280   1.083       .  S
C278        C279   1.381       .  A
C279        H281   1.082       .  S
N282        N283   1.323       .  A
N282        C286   1.345       .  A
N283        C284   1.345       .  A
C284        C285   1.382       .  A
C284        H287   1.082       .  S
C285        C286   1.382       .  A
C285        C326   1.468       .  S
C286        H288   1.083       .  S
N289        N290   1.323       .  A
N289        C293   1.345       .  A
N289       Cu297   2.070       .  S
N290        C291   1.345       .  A
N290       Cu296   2.077       .  S
C291        C292   1.382       .  A
C291        H294   1.082       .  S
C292        C293   1.381       .  A
C292        C357   1.467       .  S
C293        H295   1.082       .  S
Cu296       N299   2.077       .  S
Cu297       N307   2.070       .  S
Cu298       N300   2.068       .  S
Cu298       N306   2.068       .  S
N299        N300   1.322       .  A
N299        C303   1.345       .  A
N300        C301   1.345       .  A
C301        C302   1.381       .  A
C301        H304   1.082       .  S
C302        C303   1.382       .  A
C303        H305   1.082       .  S
N306        N307   1.323       .  A
N306        C310   1.344       .  A
N307        C308   1.344       .  A
C308        C309   1.380       .  A
C308        H311   1.082       .  S
C309        C310   1.379       .  A
C309        C386   1.466       .  S
C310        H312   1.082       .  S
N313        N314   1.322       .  A
N313        C317   1.345       .  A
N313       Cu321   2.067       .  S
N314        C315   1.345       .  A
N314       Cu320   2.077   1_565  S
C315        C316   1.382       .  A
C315        H318   1.082       .  S
C316        C317   1.381       .  A
C316        C381   1.466       .  S
C317        H319   1.082       .  S
Cu320       N323   2.077       .  S
Cu321       N331   2.066       .  S
Cu322       N324   2.071       .  S
Cu322       N330   2.071       .  S
N323        N324   1.323       .  A
N323        C327   1.345       .  A
N324        C325   1.345       .  A
C325        C326   1.382       .  A
C325        H328   1.082       .  S
C326        C327   1.382       .  A
C327        H329   1.082       .  S
N330        N331   1.322   1_545  A
N330        C334   1.344       .  A
N331        C332   1.344       .  A
C332        C333   1.381   1_565  A
C332        H335   1.082       .  S
C333        C334   1.382       .  A
C333        C403   1.472       .  S
C334        H336   1.082       .  S
N337        N338   1.322       .  A
N337        C341   1.346       .  A
N337       Cu345   2.076       .  S
N338        C339   1.346       .  A
N338       Cu344   2.075       .  S
C339        C340   1.384       .  A
C339        H342   1.082       .  S
C340        C341   1.384       .  A
C340        C364   1.473       .  S
C341        H343   1.082       .  S
Cu344       N347   2.074       .  S
Cu345       N355   2.076       .  S
Cu346       N348   2.072       .  S
Cu346       N354   2.072       .  S
N347        N348   1.323       .  A
N347        C351   1.345       .  A
N348        C349   1.345       .  A
C349        C350   1.381       .  A
C349        H352   1.083       .  S
C350        C351   1.381       .  A
C351        H353   1.082       .  S
N354        N355   1.323       .  A
N354        C358   1.346       .  A
N355        C356   1.345       .  A
C356        C357   1.381       .  A
C356        H359   1.082       .  S
C357        C358   1.382       .  A
C358        H360   1.083       .  S
N361        N362   1.322       .  A
N361        C365   1.345       .  A
N361       Cu369   2.075       .  S
N362        C363   1.346       .  A
N362       Cu368   2.076       .  S
C363        C364   1.384       .  A
C363        H366   1.082       .  S
C364        C365   1.384       .  A
C365        H367   1.082       .  S
Cu368       N371   2.075       .  S
Cu369       N379   2.074       .  S
Cu370       N372   2.071       .  S
Cu370       N378   2.071       .  S
N371        N372   1.323       .  A
N371        C375   1.345       .  A
N372        C373   1.345       .  A
C373        C374   1.381       .  A
C373        H376   1.083       .  S
C374        C375   1.381       .  A
C375        H377   1.082       .  S
N378        N379   1.323       .  A
N378        C382   1.345       .  A
N379        C380   1.344       .  A
C380        C381   1.381       .  A
C380        H383   1.082       .  S
C381        C382   1.382       .  A
C382        H384   1.083       .  S
C385        C386   1.401   1_556  A
C385        C390   1.404       .  A
C385        H392   1.083       .  S
C386        C387   1.414       .  A
C387        C388   1.403       .  A
C387        N394   1.443       .  S
C388        C389   1.401   1_554  A
C388        H393   1.083       .  S
C389        C390   1.414       .  A
C390        N391   1.444       .  S
N391        O395   1.263       .  A
N391        O396   1.262       .  A
N394        O397   1.262       .  A
N394        O398   1.263       .  A
C399        C400   1.401   1_455  A
C399        C404   1.403       .  A
C399        H406   1.084       .  S
C400        C401   1.414   1_545  A
C401        C402   1.403       .  A
C401        N408   1.440       .  S
C402        C403   1.401   1_665  A
C402        H407   1.084       .  S
C403        C404   1.414       .  A
C404        N405   1.440       .  S
N405        O409   1.263       .  A
N405        O410   1.263       .  A
N408        O411   1.263       .  A
N408        O412   1.263       .  A
