geometry optimzed in LAMMPS
_audit_creation_date              2020-11-30 
_audit_creation_method            'lammps2cif' 
_symmetry_space_group_name_H-M    'P1' 
_symmetry_Int_Tables_number       1 
_symmetry_cell_setting            triclinic 
loop_ 
_symmetry_equiv_pos_as_xyz 
  x,y,z 
_cell_length_a                    26.13955562 
_cell_length_b                    26.09791757457644 
_cell_length_c                    26.37977680425771 
_cell_angle_alpha                 90.19613177082067 
_cell_angle_beta                  89.63923307811211 
_cell_angle_gamma                 120.19625661553583 
loop_ 
_atom_site_label 
_atom_site_type_symbol 
_atom_site_fract_x 
_atom_site_fract_y 
_atom_site_fract_z 
_atom_site_charge 
C1          C  0.00081032  0.31763413  0.30423932     0.87800
C2          C  0.05190861  0.30547727  0.29693737    -0.52400
C3          C  0.04915164  0.27584691  0.25356502     0.10700
C4          C  0.99407811  0.26011776  0.22083427     0.21700
C5          C  0.00126579  0.35033240  0.25562451    -0.53200
C6          C  0.99779138  0.32063016  0.21132483     0.10800
C7          C  0.94464837  0.25682689  0.30083267    -0.52700
C8          C  0.94056488  0.22645509  0.25748931     0.11400
H9          H  0.08822378  0.32020168  0.32356686     0.15900
H10         H  0.99108868  0.23534135  0.18560687     0.01700
H11         H  0.00285527  0.39259443  0.25712607     0.16200
H12         H  0.91056310  0.23955901  0.33005814     0.16000
C13         C  0.29355283  0.32124688  0.30623609     0.87800
C14         C  0.29023509  0.26094569  0.30240243    -0.52400
C15         C  0.26396510  0.23029564  0.25898713     0.10700
C16         C  0.24315961  0.26286314  0.22308269     0.21700
C17         C  0.32481582  0.35375939  0.25745806    -0.53200
C18         C  0.29923135  0.32363642  0.21365422     0.10800
C19         C  0.22945091  0.30733902  0.29973562    -0.52700
C20         C  0.20295971  0.27728720  0.25624429     0.11400
H21         H  0.30807982  0.24449245  0.33102444     0.15900
H22         H  0.22193036  0.23808148  0.18779357     0.01700
H23         H  0.36550590  0.39620776  0.25835385     0.16200
H24         H  0.20746407  0.32177918  0.32648219     0.16000
C25         C  0.31511998  0.02415990  0.28695947     0.87800
C26         C  0.25172805  0.97106475  0.28641983    -0.52400
C27         C  0.21792898  0.97238370  0.24757252     0.10700
C28         C  0.25149861  0.02665059  0.21191368     0.21700
C29         C  0.34013603  0.02425052  0.23478779    -0.53200
C30         C  0.30751378  0.02464316  0.19492533     0.10800
C31         C  0.30821424  0.07901069  0.28727703    -0.52700
C32         C  0.27496399  0.08063824  0.24822787     0.11400
H33         H  0.23484762  0.93602403  0.31465862     0.15900
H34         H  0.22449496  0.02790402  0.18012055     0.01700
H35         H  0.38240654  0.02627481  0.23002947     0.16200
H36         H  0.32797663  0.11358808  0.31585054     0.16000
C37         C  0.99888155  0.73772724  0.31011971     0.87800
C38         C  0.94392318  0.74366535  0.30321415    -0.52400
C39         C  0.94426530  0.77175818  0.25945826     0.10700
C40         C  0.00025150  0.79159191  0.22626540     0.21700
C41         C  0.00245545  0.70665832  0.26185745    -0.53200
C42         C  0.00282235  0.73440108  0.21766262     0.10800
C43         C  0.05165580  0.80114534  0.30551305    -0.52700
C44         C  0.05325403  0.82921069  0.26152060     0.11400
H45         H  0.90746598  0.72629830  0.33022532     0.15900
H46         H  0.00075321  0.81442620  0.19064289     0.01700
H47         H  0.00329950  0.66565513  0.26332711     0.16200
H48         H  0.08695065  0.82083042  0.33328713     0.16000
C49         C  0.68706616  0.71429285  0.28564975     0.87800
C50         C  0.69344762  0.77598523  0.28794773    -0.52400
C51         C  0.72785596  0.81321883  0.25005830     0.10700
C52         C  0.75300099  0.78487741  0.21286497     0.21700
C53         C  0.66378290  0.69176120  0.23273298    -0.53200
C54         C  0.69780658  0.72736152  0.19412963     0.10800
C55         C  0.75039596  0.72531025  0.28537516    -0.52700
C56         C  0.78530763  0.76223234  0.24756588     0.11400
H57         H  0.67151776  0.78859571  0.31633658     0.15900
H58         H  0.78090707  0.81470173  0.18184068     0.01700
H59         H  0.62254713  0.65058481  0.22624639     0.16200
H60         H  0.76604223  0.70499322  0.31239471     0.16000
C61         C  0.68261749  0.02302818  0.19717748     0.87800
C62         C  0.69053586  0.96876093  0.19671795    -0.52400
C63         C  0.72400547  0.96762805  0.23578391     0.10700
C64         C  0.74676297  0.02173399  0.27210492     0.21700
C65         C  0.65726163  0.02243688  0.24944723    -0.53200
C66         C  0.69030445  0.02283989  0.28927535     0.10800
C67         C  0.74550132  0.07688296  0.19769406    -0.52700
C68         C  0.77957778  0.07627368  0.23648307     0.11400
H69         H  0.67058803  0.93382760  0.16846601     0.15900
H70         H  0.77401329  0.02110712  0.30396637     0.01700
H71         H  0.61490805  0.02021730  0.25435151     0.16200
H72         H  0.76148642  0.11250471  0.17005404     0.16000
O73         O  0.43723462  0.02721394  0.39783795    -0.78800
O74         O  0.60722732  0.13466077  0.03551166    -0.78800
O75         O  0.44323757  0.09462982  0.49678886    -0.78900
O76         O  0.60008113  0.01085426  0.43765901    -0.78800
O77         O  0.50300602  0.12967277  0.04617004    -0.78900
O78         O  0.54831931  0.03614063  0.38946728    -0.78800
O79         O  0.59763077  0.11453806  0.95415860    -0.78800
O80         O  0.36841173  0.99471939  0.45677100    -0.78900
C81         C  0.38561733  0.01410848  0.41230359     1.10900
C82         C  0.62143889  0.15080587  0.98991084     1.10700
C83         C  0.49845331  0.14630170  0.00234911     1.10900
C84         C  0.59337681  0.03061738  0.39579090     1.10800
O85         O  0.49827388  0.92061650  0.43647917    -0.78800
O86         O  0.45283879  0.01625592  0.09648262    -0.78900
O87         O  0.39987177  0.93063830  0.52758263    -0.78800
O88         O  0.63034261  0.05314830  0.02727273    -0.78800
O89         O  0.56246978  0.02275279  0.08686716    -0.78900
O90         O  0.39292649  0.91378750  0.44577695    -0.78800
O91         O  0.55483818  0.95237493  0.99124591    -0.78800
O92         O  0.40129779  0.04178596  0.04815546    -0.78900
Co93       Co  0.47153532  0.97891204  0.42145491     1.51500
Co94       Co  0.52901922  0.07128624  0.06252069     1.51700
Co95       Co  0.42437715  0.01449370  0.51472911     1.51600
Co96       Co  0.57296064  0.03130604  0.97010634     1.51500
O97         O  0.49934032  0.01743086  0.99922922    -1.40800
C98         C  0.50116921  0.90269125  0.48020556     1.10800
C99         C  0.40772498  0.02166575  0.08992988     1.10900
C100        C  0.37757829  0.89579517  0.49077750     1.10800
C101        C  0.61358713  0.03474486  0.07204760     1.10800
O102        O  0.97769416  0.45523264  0.41022151    -0.78800
O103        O  0.88278219  0.52112303  0.05896464    -0.78800
O104        O  0.91923435  0.40561021  0.98984261    -0.78900
O105        O  0.99306529  0.64826133  0.45290838    -0.78800
O106        O  0.88139694  0.42179444  0.05604142    -0.78900
O107        O  0.98216524  0.57199822  0.40642341    -0.78800
O108        O  0.92273944  0.58138853  0.99662203    -0.78800
O109        O  0.99400739  0.39208959  0.45458437    -0.78900
C110        C  0.98167064  0.40765057  0.41260693     1.10900
C111        C  0.87786001  0.54741154  0.02142798     1.10700
C112        C  0.87521748  0.39287087  0.01641656     1.10900
C113        C  0.98297253  0.62214565  0.41043890     1.10800
O114        O  0.10453734  0.62264762  0.44136775    -0.78800
O115        O  0.99772359  0.47153516  0.10497404    -0.78900
O116        O  0.08089776  0.51308093  0.03649129    -0.78800
O117        O  0.00016997  0.65810888  0.06798450    -0.78800
O118        O  0.99872038  0.58316758  0.10941645    -0.78900
O119        O  0.10092182  0.52155642  0.44049101    -0.78800
O120        O  0.08367513  0.62853333  0.04234979    -0.78800
O121        O  0.99546438  0.39884631  0.05883740    -0.78900
Co122      Co  0.03602874  0.54052594  0.43494119     1.51500
Co123      Co  0.94681460  0.50308938  0.07283574     1.51700
Co124      Co  0.99785778  0.46035271  0.01624931     1.51600
Co125      Co  0.00070293  0.60149645  0.02243452     1.51500
O126        O  0.98937415  0.52719519  0.99598962    -1.40800
C127        C  0.11811856  0.65623732  0.47901768     1.10800
C128        C  0.99902236  0.42261063  0.10205596     1.10900
C129        C  0.11697144  0.50538613  0.47894524     1.10800
C130        C  0.00257177  0.63462772  0.10934345     1.10800
O131        O  0.38761006  0.42791572  0.44199987    -0.78800
O132        O  0.58857981  0.52657931  0.97031253    -0.78800
O133        O  0.57040267  0.58604097  0.39729910    -0.78900
O134        O  0.49704936  0.41476251  0.06183708    -0.78800
O135        O  0.60815000  0.65580577  0.45522515    -0.78900
O136        O  0.47275272  0.41374105  0.98268056    -0.78800
O137        O  0.60131063  0.51514751  0.05037982    -0.78800
O138        O  0.46470599  0.47484741  0.39138255    -0.78900
C139        C  0.41317430  0.43120911  0.39992946     1.10900
C140        C  0.61502767  0.51554425  0.00432320     1.10700
C141        C  0.60946982  0.63792649  0.41089034     1.10900
C142        C  0.49097781  0.39431353  0.01736496     1.10800
O143        O  0.39549020  0.40149126  0.06903424    -0.78800
O144        O  0.54157179  0.64175531  0.01180927    -0.78900
O145        O  0.40295571  0.52975611  0.43599218    -0.78800
O146        O  0.55801094  0.58160845  0.10484389    -0.78800
O147        O  0.62335824  0.62091292  0.04396371    -0.78900
O148        O  0.36996837  0.47513562  0.02764060    -0.79700
O149        O  0.45022357  0.47937922  0.11611749    -0.78800
O150        O  0.50355035  0.63420061  0.44360179    -0.78900
Co151      Co  0.42209920  0.44663202  0.00287943     1.51500
Co152      Co  0.56204523  0.58318183  0.98903014     1.51700
Co153      Co  0.48759597  0.55388627  0.42133145     1.51600
Co154      Co  0.52383100  0.49947579  0.07953340     1.51500
O155        O  0.49008537  0.52186913  0.01802244    -1.40800
C156        C  0.40483353  0.42882420  0.11098595     1.10800
C157        C  0.50094475  0.65091894  0.48817695     1.10900
C158        C  0.38069296  0.52762023  0.47912194     1.10800
C159        C  0.60962009  0.61932545  0.09027843     1.10800
C160        C  0.32872940  0.53216476  0.48332899    -0.17200
C161        C  0.28186566  0.53016981  0.48481963     0.06900
C162        C  0.22493375  0.52296045  0.48418599     0.08700
C163        C  0.17555654  0.51489312  0.48212878    -0.18000
C164        C  0.66614154  0.51159727  0.99228958    -0.17200
C165        C  0.71420022  0.51629760  0.99050565     0.06900
C166        C  0.77217781  0.52745704  0.99692129     0.08700
C167        C  0.82118355  0.53785195  0.00711924    -0.18000
C168        C  0.48980971  0.84358250  0.48734695    -0.17200
C169        C  0.48385288  0.79511159  0.49249036     0.06900
C170        C  0.48291891  0.74087454  0.49588437     0.08700
C171        C  0.48809562  0.69764337  0.49501332    -0.18000
C172        C  0.50122033  0.34643560  0.00714408    -0.17200
C173        C  0.50658271  0.30386477  0.00008846     0.06900
C174        C  0.50849042  0.25120503  0.99533474     0.08700
C175        C  0.50604973  0.20399550  0.99570501    -0.18000
C176        C  0.32945500  0.83752994  0.49881846    -0.17200
C177        C  0.28359641  0.79149197  0.49897725     0.06900
C178        C  0.22686207  0.74242578  0.49308809     0.08700
C179        C  0.17730580  0.70293691  0.48603793    -0.18000
C180        C  0.81853094  0.34558444  0.00189508    -0.17200
C181        C  0.77093415  0.30519959  0.99012298     0.06900
C182        C  0.71554039  0.25506910  0.98090984     0.08700
C183        C  0.66993210  0.20864337  0.98027204    -0.18000
C184        C  0.64225921  0.02368102  0.15698543    -0.15100
C185        C  0.65431495  0.02951146  0.10729313    -0.30300
H186        H  0.60147691  0.02133257  0.16970829     0.13900
H187        H  0.69550324  0.03398953  0.09318413     0.14500
C188        C  0.66918524  0.02152738  0.34256281    -0.15100
C189        C  0.63537880  0.04623075  0.35288932    -0.30300
H190        H  0.67529507  0.99494641  0.37079734     0.13900
H191        H  0.63181162  0.07419052  0.32438419     0.14500
C192        C  0.65461851  0.65065036  0.12935931    -0.15100
C193        C  0.67944345  0.70876604  0.14063605    -0.30300
H194        H  0.65752344  0.62142948  0.15700178     0.13900
H195        H  0.67769865  0.73962951  0.11420806     0.14500
C196        C  0.64647501  0.67051801  0.32490364    -0.15100
C197        C  0.65443398  0.67953389  0.37482999    -0.30300
H198        H  0.60771855  0.63023060  0.31172526     0.13900
H199        H  0.69166508  0.72034496  0.38901310     0.14500
C200        C  0.73505926  0.87201325  0.24474434    -0.12000
C201        C  0.73381603  0.91782967  0.24203013    -0.13500
C202        C  0.00271515  0.71084607  0.16605790    -0.15100
C203        C  0.01328143  0.66600323  0.15806374    -0.30300
H204        H  0.99087215  0.72913507  0.13432826     0.13900
H205        H  0.02577905  0.64767123  0.18914881     0.14500
C206        C  0.99988517  0.70762987  0.35906894    -0.15100
C207        C  0.97042665  0.64828726  0.36588982    -0.30300
H208        H  0.03069864  0.73543016  0.38823036     0.13900
H209        H  0.94257787  0.61899111  0.33602041     0.14500
C210        C  0.89359102  0.77767041  0.24569753    -0.12000
C211        C  0.84609219  0.77516351  0.24179857    -0.13500
C212        C  0.32963674  0.02750494  0.14191071    -0.15100
C213        C  0.36432569  0.00385106  0.13171391    -0.30300
H214        H  0.32414849  0.05496010  0.11415545     0.13900
H215        H  0.36722465  0.97483027  0.15953127     0.14500
C216        C  0.35555567  0.02319666  0.32712699    -0.15100
C217        C  0.34449332  0.01879841  0.37697792    -0.30300
H218        H  0.39590146  0.02466767  0.31432039     0.13900
H219        H  0.30366253  0.01497704  0.39129290     0.14500
C220        C  0.15588905  0.92676018  0.24316908    -0.12000
C221        C  0.10629129  0.88431342  0.24750087    -0.13500
C222        C  0.32639759  0.34588785  0.16265448    -0.15100
C223        C  0.36532453  0.40384506  0.15517276    -0.30300
H224        H  0.31720799  0.31410929  0.13242918     0.13900
H225        H  0.37256294  0.43556412  0.18488089     0.14500
C226        C  0.32346324  0.35718223  0.35374890    -0.15100
C227        C  0.38278489  0.38573958  0.36005401    -0.30300
H228        H  0.29670010  0.36533645  0.38067115     0.13900
H229        H  0.41025449  0.38062618  0.33174351     0.14500
C230        C  0.26048842  0.17414444  0.24748366    -0.12000
C231        C  0.26366238  0.12950467  0.24371656    -0.13500
C232        C  0.99541854  0.34283934  0.15910503    -0.15100
C233        C  0.00926172  0.39943484  0.15019252    -0.30300
H234        H  0.98018948  0.31139177  0.12795142     0.13900
H235        H  0.02500530  0.43087071  0.18122551     0.14500
C236        C  0.00612844  0.35030339  0.35349510    -0.15100
C237        C  0.96990063  0.37085544  0.36661456    -0.30300
H238        H  0.04234007  0.35904220  0.37878315     0.13900
H239        H  0.93601999  0.36646057  0.34044153     0.14500
C240        C  0.09732667  0.26508336  0.24127865    -0.12000
C241        C  0.14414536  0.26580671  0.24273730    -0.13500
C242        C  0.88797769  0.16938947  0.24766151    -0.12000
C243        C  0.83997934  0.12477416  0.24324986    -0.13500
C244        C  0.02009704  0.33945590  0.80816227     0.87800
C245        C  0.07168205  0.32812573  0.80076756    -0.52400
C246        C  0.06703011  0.29551724  0.75885645     0.10700
C247        C  0.01052317  0.27655354  0.72760939     0.21700
C248        C  0.01725869  0.36799815  0.75799977    -0.53200
C249        C  0.01180975  0.33505621  0.71541057     0.10800
C250        C  0.96451420  0.27765943  0.80825058    -0.52700
C251        C  0.95957919  0.24479522  0.76626723     0.11400
H252        H  0.10912095  0.34483138  0.82638607     0.15900
H253        H  0.00640570  0.24951935  0.69360453     0.01700
H254        H  0.01732342  0.40959579  0.75689415     0.16200
H255        H  0.93178514  0.26160115  0.83857524     0.16000
C256        C  0.31421390  0.32880093  0.79016080     0.87800
C257        C  0.30599013  0.26646006  0.78543908    -0.52400
C258        C  0.27113301  0.23442229  0.74558625     0.10700
C259        C  0.24750841  0.26772631  0.71392068     0.21700
C260        C  0.33791812  0.35728076  0.73839349    -0.53200
C261        C  0.30294504  0.32623228  0.69838033     0.10800
C262        C  0.25120507  0.31914419  0.79250307    -0.52700
C263        C  0.21638552  0.28733544  0.75263956     0.11400
H264        H  0.32603662  0.24928408  0.81120282     0.15900
H265        H  0.21921095  0.24193173  0.68150662     0.01700
H266        H  0.37954936  0.39857836  0.73392597     0.16200
H267        H  0.23621902  0.33773155  0.82204406     0.16000
C268        C  0.28196193  0.01363793  0.80037722     0.87800
C269        C  0.21756586  0.96437412  0.79579540    -0.52400
C270        C  0.19172024  0.96481687  0.75140250     0.10700
C271        C  0.23278441  0.01612676  0.71540210     0.21700
C272        C  0.31260947  0.00675481  0.75313816    -0.53200
C273        C  0.28731913  0.00827851  0.70822007     0.10800
C274        C  0.28138103  0.07120652  0.79232266    -0.52700
C275        C  0.25581748  0.07300455  0.74806492     0.11400
H276        H  0.19499980  0.93006400  0.82429072     0.15900
H277        H  0.21159925  0.01719441  0.67935703     0.01700
H278        H  0.35170008  0.00262345  0.75586819     0.16200
H279        H  0.29987253  0.10762715  0.81932505     0.16000
C280        C  0.99205550  0.71069106  0.79268009     0.87800
C281        C  0.93728121  0.71802382  0.79410915    -0.52400
C282        C  0.93472619  0.75057761  0.75452569     0.10700
C283        C  0.98726642  0.77321852  0.71718581     0.21700
C284        C  0.99019251  0.68480323  0.74029521    -0.53200
C285        C  0.98866291  0.71742951  0.70071330     0.10800
C286        C  0.04524644  0.77424254  0.78999779    -0.52700
C287        C  0.04252058  0.80694435  0.75061641     0.11400
H288        H  0.90315270  0.69835396  0.82314778     0.15900
H289        H  0.98530751  0.79960707  0.68506712     0.01700
H290        H  0.99018197  0.64349649  0.73477599     0.16200
H291        H  0.08205128  0.79145633  0.81628936     0.16000
C292        C  0.69243898  0.72855817  0.80306399     0.87800
C293        C  0.71036620  0.79423917  0.80343218    -0.52400
C294        C  0.74300811  0.82508146  0.76241478     0.10700
C295        C  0.75564375  0.78735616  0.72454547     0.21700
C296        C  0.66073784  0.70488954  0.75259342    -0.53200
C297        C  0.69351435  0.73515118  0.71092659     0.10800
C298        C  0.75050080  0.72817881  0.79796689    -0.52700
C299        C  0.78389757  0.75901750  0.75718354     0.11400
H300        H  0.69633630  0.81414635  0.83258025     0.15900
H301        H  0.78269588  0.81241877  0.69115904     0.01700
H302        H  0.61709374  0.66582584  0.75072611     0.16200
H303        H  0.76425176  0.70581142  0.82462693     0.16000
C304        C  0.71907365  0.03796885  0.68456329     0.87800
C305        C  0.72471128  0.98287952  0.69104166    -0.52400
C306        C  0.75081787  0.98199155  0.73522639     0.10700
C307        C  0.76857246  0.03657035  0.76957532     0.21700
C308        C  0.68567342  0.04008395  0.73179312    -0.53200
C309        C  0.71107378  0.03916926  0.77672420     0.10800
C310        C  0.78194951  0.09062422  0.69075612    -0.52700
C311        C  0.80777566  0.09029853  0.73534421     0.11400
H312        H  0.70918176  0.94750527  0.66311769     0.15900
H313        H  0.78984099  0.03590356  0.80570820     0.01700
H314        H  0.64491169  0.04116721  0.72891667     0.16200
H315        H  0.80333622  0.12623616  0.66322769     0.16000
O316        O  0.44373299  0.03353450  0.89455983    -0.78800
O317        O  0.59973806  0.12878566  0.55759085    -0.78800
O318        O  0.48318692  0.11075865  0.96580217    -0.78900
O319        O  0.63074863  0.03511346  0.92397899    -0.78800
O320        O  0.49820632  0.12444304  0.56306623    -0.78900
O321        O  0.55555057  0.03347475  0.88329461    -0.78800
O322        O  0.61887123  0.10683649  0.48399377    -0.78800
O323        O  0.37040785  0.02393247  0.94488583    -0.78900
C324        C  0.39421455  0.03272786  0.90119585     1.10900
C325        C  0.63048888  0.14411766  0.51803028     1.10700
C326        C  0.47295802  0.13461300  0.52761215     1.10900
C327        C  0.60721481  0.03759316  0.88287607     1.10800
O328        O  0.49385700  0.91564979  0.92920121    -0.78800
O329        O  0.43692176  0.00351294  0.60147086    -0.78900
O330        O  0.38013739  0.94506877  0.00732921    -0.78800
O331        O  0.62797874  0.02443942  0.54143435    -0.78800
O332        O  0.55189095  0.00756977  0.59157564    -0.78900
O333        O  0.39382692  0.91308196  0.93658548    -0.78800
O334        O  0.51653201  0.93760479  0.51712556    -0.78800
O335        O  0.36510818  0.00804718  0.56078888    -0.78900
Co336      Co  0.47531263  0.98009009  0.92066125     1.51500
Co337      Co  0.51834095  0.06043750  0.56790493     1.51700
Co338      Co  0.43234434  0.02576065  0.98324121     1.51600
Co339      Co  0.56677745  0.02356950  0.50291738     1.51500
O340        O  0.49894308  0.03014443  0.48672095    -1.40800
C341        C  0.52205572  0.90928864  0.96428758     1.10800
C342        C  0.38661461  0.00220979  0.60187271     1.10900
C343        C  0.36654274  0.90322681  0.97786735     1.10800
C344        C  0.60335271  0.01238111  0.58486263     1.10800
O345        O  0.99499849  0.48252500  0.90016018    -0.78800
O346        O  0.89930252  0.52548605  0.56631130    -0.78800
O347        O  0.91222873  0.41942426  0.48927650    -0.78900
O348        O  0.02480362  0.65926021  0.96445920    -0.78800
O349        O  0.90045913  0.42310277  0.57087184    -0.78900
O350        O  0.00022599  0.59227125  0.90483261    -0.78800
O351        O  0.91171436  0.53667668  0.48409392    -0.78800
O352        O  0.01839666  0.43145487  0.95182492    -0.78900
C353        C  0.00176143  0.43850998  0.90823522     1.10900
C354        C  0.87936970  0.52554380  0.52266949     1.10700
C355        C  0.87982117  0.40114618  0.52786867     1.10900
C356        C  0.00928011  0.64276882  0.91904250     1.10800
O357        O  0.10798040  0.63753269  0.96195080    -0.78800
O358        O  0.01977183  0.48574245  0.61144236    -0.78900
O359        O  0.08090322  0.48008797  0.51387040    -0.78800
O360        O  0.98399278  0.62918766  0.55636186    -0.78800
O361        O  0.01887313  0.58875131  0.60750097    -0.78900
O362        O  0.10487944  0.53351620  0.95651099    -0.78800
O363        O  0.07940856  0.64826376  0.51054430    -0.78800
O364        O  0.98795396  0.40581915  0.56504855    -0.78900
Co365      Co  0.04709942  0.55875297  0.93465676     1.51500
Co366      Co  0.96324079  0.50748850  0.58478251     1.51700
Co367      Co  0.99775633  0.45184600  0.49924232     1.51600
Co368      Co  0.99715402  0.59160304  0.49454417     1.51500
O369        O  0.00912209  0.52840127  0.51704056    -1.40800
C370        C  0.12189420  0.65202428  0.00771472     1.10800
C371        C  0.01078968  0.43385754  0.60624943     1.10900
C372        C  0.11834727  0.52786905  0.00138638     1.10800
C373        C  0.00841939  0.62978480  0.59782215     1.10800
O374        O  0.35848982  0.38374996  0.96775981    -0.78800
O375        O  0.62999597  0.57931769  0.49703077    -0.78800
O376        O  0.54421132  0.55926035  0.90050574    -0.78900
O377        O  0.50082685  0.42548129  0.56272117    -0.78800
O378        O  0.61571376  0.63697797  0.94168924    -0.78900
O379        O  0.45922284  0.40628551  0.48992024    -0.78800
O380        O  0.60193701  0.52415230  0.56354968    -0.78800
O381        O  0.42621088  0.44562829  0.91231114    -0.78900
C382        C  0.37705140  0.39655522  0.92239600     1.10900
C383        C  0.63766236  0.54756167  0.52749722     1.10700
C384        C  0.59378641  0.60976170  0.90048306     1.10900
C385        C  0.48256921  0.39312451  0.52435521     1.10800
O386        O  0.37017276  0.40396629  0.54748761    -0.78800
O387        O  0.51391684  0.63002629  0.52569982    -0.78900
O388        O  0.38472885  0.52055372  0.95649030    -0.78800
O389        O  0.54757172  0.59232920  0.60035517    -0.78800
O390        O  0.62569364  0.66208108  0.55867639    -0.78900
O391        O  0.40089459  0.51603405  0.51761977    -0.79700
O392        O  0.43413735  0.48163737  0.59335940    -0.78800
O393        O  0.48626641  0.61748659  0.94574400    -0.78900
Co394      Co  0.43289821  0.46235498  0.50669313     1.51500
Co395      Co  0.57087349  0.60182255  0.51423676     1.51700
Co396      Co  0.46454146  0.53293695  0.93901654     1.51600
Co397      Co  0.51937754  0.50911389  0.56950611     1.51500
O398        O  0.50936780  0.52703724  0.48794225    -1.40800
C399        C  0.38587791  0.43074054  0.58987909     1.10800
C400        C  0.51188502  0.65247940  0.98165746     1.10900
C401        C  0.35666437  0.50290754  0.99739478     1.10800
C402        C  0.59673428  0.64265204  0.59966979     1.10800
C403        C  0.30891910  0.51320165  0.00814445    -0.17200
C404        C  0.26801691  0.52161186  0.01350067     0.06900
C405        C  0.21840252  0.52914935  0.01460722     0.08700
C406        C  0.17388765  0.53162397  0.01088204    -0.18000
C407        C  0.68680458  0.53819502  0.52190385    -0.17200
C408        C  0.72794156  0.52984275  0.51846418     0.06900
C409        C  0.77753635  0.52224142  0.51683010     0.08700
C410        C  0.82242944  0.52015699  0.51801093    -0.18000
C411        C  0.51719004  0.85340585  0.97288392    -0.17200
C412        C  0.51333991  0.80629112  0.97948355     0.06900
C413        C  0.51040738  0.75168425  0.98473175     0.08700
C414        C  0.50997301  0.70567560  0.98566720    -0.18000
C415        C  0.48544442  0.34021910  0.52145090    -0.17200
C416        C  0.48473101  0.29397076  0.52046436     0.06900
C417        C  0.48122481  0.23866988  0.52118868     0.08700
C418        C  0.47731257  0.19098400  0.52342356    -0.18000
C419        C  0.31977341  0.84529746  0.99118304    -0.17200
C420        C  0.27902325  0.79810120  0.00405196     0.06900
C421        C  0.22763609  0.74419025  0.01582618     0.08700
C422        C  0.18002289  0.69981833  0.01814557    -0.18000
C423        C  0.82117665  0.35192452  0.52331908    -0.17200
C424        C  0.77429517  0.30719573  0.51862489     0.06900
C425        C  0.72236567  0.25181417  0.51435271     0.08700
C426        C  0.67977597  0.20284602  0.51368716    -0.18000
C427        C  0.69022751  0.03899714  0.63572344    -0.15100
C428        C  0.63232717  0.00203177  0.62758269    -0.30300
H429        H  0.71605203  0.07367336  0.60828029     0.13900
H430        H  0.60504808  0.96998245  0.65631211     0.14500
C431        C  0.68521691  0.03868488  0.82754130    -0.15100
C432        C  0.63897233  0.04767147  0.83414460    -0.30300
H433        H  0.70345001  0.02818843  0.86015064     0.13900
H434        H  0.62026331  0.05854540  0.80228176     0.14500
C435        C  0.61611274  0.67718288  0.64698438    -0.15100
C436        C  0.67332531  0.71565246  0.65789009    -0.30300
H437        H  0.58233246  0.66436224  0.67601912     0.13900
H438        H  0.70681881  0.72905594  0.62838271     0.14500
C439        C  0.65641827  0.69570891  0.84887845    -0.15100
C440        C  0.62684485  0.63620369  0.85338403    -0.30300
H441        H  0.65366151  0.72215115  0.87959289     0.13900
H442        H  0.62503509  0.60800886  0.82227458     0.14500
C443        C  0.75627074  0.88527756  0.75376111    -0.12000
C444        C  0.75813958  0.93207716  0.74751560    -0.13500
C445        C  0.98929970  0.69874345  0.64775072    -0.15100
C446        C  0.02331921  0.67512826  0.63669287    -0.30300
H447        H  0.95613570  0.69571489  0.62141764     0.13900
H448        H  0.05610579  0.67935354  0.66415861     0.14500
C449        C  0.99495797  0.67076969  0.83322069    -0.15100
C450        C  0.00281041  0.68303726  0.88303356    -0.30300
H451        H  0.99241266  0.62988438  0.82047380     0.13900
H452        H  0.00701792  0.72414615  0.89711766     0.14500
C453        C  0.88530155  0.76037193  0.74803394    -0.12000
C454        C  0.84060205  0.76339232  0.74785319    -0.13500
C455        C  0.31151048  0.00616281  0.65728482    -0.15100
C456        C  0.35445030  0.99234343  0.65038109    -0.30300
H457        H  0.29548395  0.01950214  0.62491106     0.13900
H458        H  0.37087437  0.97863160  0.68205882     0.14500
C459        C  0.30934493  0.01119905  0.84959726    -0.15100
C460        C  0.36748208  0.04496523  0.85787063    -0.30300
H461        H  0.28177095  0.97801587  0.87756992     0.13900
H462        H  0.39627312  0.07532642  0.82876619     0.14500
C463        C  0.13409215  0.91511423  0.73951777    -0.12000
C464        C  0.08963469  0.86694669  0.74067165    -0.13500
C465        C  0.31857548  0.34776825  0.64541998    -0.15100
C466        C  0.34988654  0.40630475  0.63579211    -0.30300
H467        H  0.30931592  0.31571805  0.61541819     0.13900
H468        H  0.35796717  0.43771063  0.66610459     0.14500
C469        C  0.35453403  0.36716950  0.83252497    -0.15100
C470        C  0.34260368  0.35365830  0.88182220    -0.30300
H471        H  0.39328427  0.40919886  0.82238104     0.13900
H472        H  0.30349446  0.31220681  0.89250164     0.14500
C473        C  0.25839758  0.17444911  0.73548114    -0.12000
C474        C  0.25328358  0.12566542  0.73532696    -0.13500
C475        C  0.00356029  0.35229678  0.66307671    -0.15100
C476        C  0.02691194  0.40974668  0.65041290    -0.30300
H477        H  0.97586132  0.31779443  0.63634899     0.13900
H478        H  0.05570992  0.44294283  0.67766166     0.14500
C479        C  0.02696437  0.37587895  0.85541829    -0.15100
C480        C  0.99046606  0.39672383  0.86607482    -0.30300
H481        H  0.06437223  0.38779581  0.88021929     0.13900
H482        H  0.95536462  0.38836457  0.83968565     0.14500
C483        C  0.11320058  0.28231586  0.74680311    -0.12000
C484        C  0.15819394  0.27994375  0.74574200    -0.13500
C485        C  0.90900884  0.18645103  0.75817369    -0.12000
C486        C  0.86413246  0.14018336  0.74986075    -0.13500
loop_ 
_geom_bond_atom_site_label_1 
_geom_bond_atom_site_label_2 
_geom_bond_distance 
_geom_bond_site_symmetry_2 
_ccdc_geom_bond_type 
C1            C2   1.531       .  S
C1            C7   1.529   1_455  S
C1            C5   1.540       .  S
C1          C236   1.520       .  S
C2            H9   1.087       .  S
C2            C3   1.361       .  D
C3            C4   1.551   1_455  S
C3          C240   1.456       .  S
C4            C8   1.554       .  S
C4            C6   1.554       .  S
C4           H10   1.111       .  S
C5           H11   1.083       .  S
C5            C6   1.378   1_455  D
C6          C232   1.510       .  S
C7           H12   1.087       .  S
C7            C8   1.363       .  D
C8          C242   1.455       .  S
C13          C14   1.535       .  S
C13          C19   1.536       .  S
C13          C17   1.530       .  S
C13         C226   1.526       .  S
C14          H21   1.086       .  S
C14          C15   1.369       .  D
C15          C16   1.547       .  S
C15         C230   1.453       .  S
C16          C20   1.548       .  S
C16          C18   1.544       .  S
C16          H22   1.111       .  S
C17          H23   1.083       .  S
C17          C18   1.369       .  D
C18         C222   1.493       .  S
C19          H24   1.087       .  S
C19          C20   1.367       .  D
C20         C241   1.457       .  S
C25          C26   1.535   1_545  S
C25          C31   1.530       .  S
C25          C29   1.519       .  S
C25         C216   1.510       .  S
C26          H33   1.087       .  S
C26          C27   1.369       .  D
C27          C28   1.552   1_565  S
C27         C220   1.456       .  S
C28          C32   1.552       .  S
C28          C30   1.554       .  S
C28          H34   1.111       .  S
C29          H35   1.086       .  S
C29          C30   1.361       .  D
C30         C212   1.498       .  S
C31          H36   1.087       .  S
C31          C32   1.366       .  D
C32         C231   1.452       .  S
C37          C38   1.532       .  S
C37          C43   1.536   1_655  S
C37          C41   1.535   1_655  S
C37         C206   1.521       .  S
C38          H45   1.087       .  S
C38          C39   1.367       .  D
C39          C40   1.550   1_655  S
C39         C210   1.457       .  S
C40          C44   1.546       .  S
C40          C42   1.543       .  S
C40          H46   1.111       .  S
C41          H47   1.082       .  S
C41          C42   1.372       .  D
C42         C202   1.491       .  S
C43          H48   1.087       .  S
C43          C44   1.364       .  D
C44         C221   1.456       .  S
C49          C50   1.534       .  S
C49          C55   1.531       .  S
C49          C53   1.520       .  S
C49         C196   1.509       .  S
C50          H57   1.086       .  S
C50          C51   1.367       .  D
C51          C52   1.555       .  S
C51         C200   1.456       .  S
C52          C56   1.554       .  S
C52          C54   1.551       .  S
C52          H58   1.111       .  S
C53          H59   1.087       .  S
C53          C54   1.362       .  D
C54         C193   1.492       .  S
C55          H60   1.087       .  S
C55          C56   1.366       .  D
C56         C211   1.456       .  S
C61          C62   1.531   1_545  S
C61          C67   1.534       .  S
C61          C65   1.523       .  S
C61         C184   1.507       .  S
C62          H69   1.087       .  S
C62          C63   1.366       .  D
C63          C64   1.555   1_565  S
C63         C201   1.456       .  S
C64          C68   1.554       .  S
C64          C66   1.555       .  S
C64          H70   1.111       .  S
C65          H71   1.086       .  S
C65          C66   1.361       .  D
C66         C188   1.501       .  S
C67          H72   1.087       .  S
C67          C68   1.366       .  D
C68         C243   1.456       .  S
O73          C81   1.270       .  A
O73         Co93   1.983   1_545  S
O74          C82   1.266   1_554  A
O74         Co94   2.003       .  S
O75         C326   1.241       .  A
O75         Co95   1.951       .  S
O76          C84   1.270       .  A
O76        Co339   2.025       .  S
O77          C83   1.263       .  A
O77         Co94   2.005       .  S
O78          C84   1.269       .  A
O78         Co93   1.986   1_545  S
O79          C82   1.258       .  A
O79         Co96   1.976       .  S
O80          C81   1.266   1_565  A
O80         Co95   2.002   1_565  S
C81         C217   1.478       .  S
C82         C183   1.423       .  S
C83         O318   1.255   1_554  A
C83         C175   1.428   1_554  S
C84         C189   1.480       .  S
O85          C98   1.263       .  A
O85         Co93   2.009       .  S
O86          C99   1.269       .  A
O86         Co94   1.985       .  S
O87         C100   1.256       .  A
O87         Co95   1.977   1_565  S
O88         C101   1.266       .  A
O88         Co96   2.003   1_554  S
O89         C101   1.269       .  A
O89         Co94   1.977       .  S
O90         C100   1.265       .  A
O90         Co93   2.000       .  S
O91         C341   1.240       .  A
O91         Co96   1.950   1_565  S
O92          C99   1.270       .  A
O92        Co338   2.021   1_554  S
Co93        O340   2.074   1_565  S
Co94         O97   2.066   1_554  S
Co95        O335   1.903       .  S
Co95        O340   1.922       .  S
Co96        O319   1.897       .  S
Co96         O97   1.925       .  S
O97        Co336   2.242   1_545  S
O97        Co338   1.920       .  S
C98         O334   1.253       .  A
C98         C168   1.430       .  S
C99         C213   1.475       .  S
C100        C176   1.419       .  S
C101        C185   1.475       .  S
O102        C110   1.299       .  A
O102       Co122   2.072   1_655  S
O103        C111   1.250       .  A
O103       Co123   1.990       .  S
O104        C112   1.238   1_556  A
O104       Co124   1.951   1_556  S
O105        C113   1.268       .  A
O105       Co368   1.891       .  S
O106        C112   1.250       .  A
O106       Co123   1.994       .  S
O107        C113   1.302       .  A
O107       Co122   2.099   1_655  S
O108        C111   1.240   1_556  A
O108       Co125   1.957   1_656  S
O109        C110   1.278       .  A
O109       Co367   1.914       .  S
C110        C237   1.479       .  S
C111        C167   1.426       .  S
C112        C180   1.425       .  S
C113        C207   1.480       .  S
O114        C127   1.252       .  A
O114       Co122   1.992       .  S
O115        C128   1.296       .  A
O115       Co123   2.071       .  S
O116        C372   1.255       .  A
O116       Co124   1.974   1_455  S
O117        C130   1.270       .  A
O117       Co125   1.907       .  S
O118        C130   1.295   1_655  A
O118       Co123   2.071       .  S
O119        C129   1.253       .  A
O119       Co122   1.998       .  S
O120        C370   1.259       .  A
O120       Co125   1.988       .  S
O121        C128   1.277       .  A
O121       Co124   1.937       .  S
Co122       O369   2.247       .  S
Co123       O126   2.240   1_554  S
Co124       O352   2.033   1_654  S
Co124       O126   1.943   1_554  S
Co125       O348   2.014   1_554  S
Co125       O126   1.937   1_454  S
O126       Co365   2.074   1_655  S
C127        O363   1.240       .  A
C127        C179   1.421       .  S
C128        C233   1.491   1_655  S
C129        O359   1.241       .  A
C129        C163   1.426       .  S
C130        C203   1.472       .  S
O131        C139   1.272       .  A
O131       Co394   2.017       .  S
O132        C140   1.255   1_556  A
O132       Co152   1.982       .  S
O133        C141   1.271       .  A
O133       Co153   1.988       .  S
O134        C142   1.265       .  A
O134       Co154   2.009       .  S
O135        C141   1.264       .  A
O135       Co395   1.993       .  S
O136        C142   1.254   1_556  A
O136       Co151   1.976   1_556  S
O137        C140   1.263       .  A
O137       Co154   2.002       .  S
O138        C139   1.272       .  A
O138       Co153   1.998       .  S
C139        C227   1.483       .  S
C140        C164   1.425   1_554  S
C141        C197   1.475       .  S
C142        C172   1.428       .  S
O143        C156   1.271       .  A
O143       Co151   2.023       .  S
O144        C400   1.241   1_554  A
O144       Co152   1.949   1_554  S
O145        C158   1.263       .  A
O145       Co153   2.008       .  S
O146        C159   1.264       .  A
O146       Co154   1.977       .  S
O147        C159   1.266       .  A
O147       Co152   2.017   1_554  S
O148        C401   1.243   1_554  A
O148       Co151   1.960       .  S
O149        C156   1.262       .  A
O149       Co154   1.968       .  S
O150        C157   1.266       .  A
O150       Co153   2.007       .  S
Co151       O374   1.892   1_554  S
Co151       O155   1.915       .  S
Co152       O378   1.873       .  S
Co152       O155   1.909   1_556  S
Co153       O398   2.080       .  S
Co154       O155   2.073       .  S
O155       Co396   2.256   1_554  S
C156        C223   1.471       .  S
C157        O387   1.259       .  A
C157        C171   1.429       .  S
C158        O391   1.253       .  A
C158        C160   1.425       .  S
C159        C192   1.469       .  S
C160        C161   1.200       .  T
C161        C162   1.403       .  S
C162        C163   1.200       .  T
C164        C165   1.200       .  T
C165        C166   1.403       .  S
C166        C167   1.200   1_556  T
C168        C169   1.202       .  T
C169        C170   1.407       .  S
C170        C171   1.202       .  T
C172        C173   1.201       .  T
C173        C174   1.405   1_554  S
C174        C175   1.201       .  T
C176        C177   1.197       .  T
C177        C178   1.398       .  S
C178        C179   1.197       .  T
C180        C181   1.199   1_554  T
C181        C182   1.401       .  S
C182        C183   1.199       .  T
C184        H186   1.088       .  S
C184        C185   1.337       .  D
C185        H187   1.086       .  S
C188        H190   1.085   1_545  S
C188        C189   1.356       .  D
C189        H191   1.086       .  S
C192        H194   1.087       .  S
C192        C193   1.349       .  D
C193        H195   1.085       .  S
C196        H198   1.088       .  S
C196        C197   1.336       .  D
C197        H199   1.087       .  S
C200        C201   1.215       .  T
C202        H204   1.086   1_455  S
C202        C203   1.347       .  D
C203        H205   1.082       .  S
C206        H208   1.088   1_655  S
C206        C207   1.351       .  D
C207        H209   1.086       .  S
C210        C211   1.215       .  T
C212        H214   1.086       .  S
C212        C213   1.354       .  D
C213        H215   1.086   1_545  S
C216        H218   1.088       .  S
C216        C217   1.338       .  D
C217        H219   1.086       .  S
C220        C221   1.215       .  T
C222        H224   1.086       .  S
C222        C223   1.347       .  D
C223        H225   1.084       .  S
C226        H228   1.087       .  S
C226        C227   1.352       .  D
C227        H229   1.086       .  S
C230        C231   1.213       .  T
C232        H234   1.085       .  S
C232        C233   1.353   1_655  D
C233        H235   1.083       .  S
C236        H238   1.088       .  S
C236        C237   1.345   1_455  D
C237        H239   1.086       .  S
C240        C241   1.215       .  T
C242        C243   1.214       .  T
C244        C245   1.530       .  S
C244        C250   1.535   1_455  S
C244        C248   1.541       .  S
C244        C479   1.521       .  S
C245        H252   1.087       .  S
C245        C246   1.361       .  D
C246        C247   1.544       .  S
C246        C483   1.445       .  S
C247        C251   1.542   1_455  S
C247        C249   1.545       .  S
C247        H253   1.111       .  S
C248        H254   1.085       .  S
C248        C249   1.376       .  D
C249        C475   1.503       .  S
C250        H255   1.087       .  S
C250        C251   1.365       .  D
C251        C485   1.445       .  S
C256        C257   1.535       .  S
C256        C262   1.537       .  S
C256        C260   1.528       .  S
C256        C469   1.519       .  S
C257        H264   1.086       .  S
C257        C258   1.369       .  D
C258        C259   1.545       .  S
C258        C473   1.451       .  S
C259        C263   1.540       .  S
C259        C261   1.540       .  S
C259        H265   1.111       .  S
C260        H266   1.086       .  S
C260        C261   1.367       .  D
C261        C465   1.484       .  S
C262        H267   1.087       .  S
C262        C263   1.367       .  D
C263        C484   1.446       .  S
C268        C269   1.525   1_545  S
C268        C274   1.526       .  S
C268        C272   1.535       .  S
C268        C459   1.503       .  S
C269        H276   1.087       .  S
C269        C270   1.359       .  D
C270        C271   1.548   1_565  S
C270        C463   1.445       .  S
C271        C275   1.551       .  S
C271        C273   1.549       .  S
C271        H277   1.111       .  S
C272        H278   1.083       .  S
C272        C273   1.371       .  D
C273        C455   1.494       .  S
C274        H279   1.087       .  S
C274        C275   1.361       .  D
C275        C474   1.450       .  S
C280        C281   1.537       .  S
C280        C286   1.539   1_655  S
C280        C284   1.526       .  S
C280        C449   1.524       .  S
C281        H288   1.086       .  S
C281        C282   1.371       .  D
C282        C283   1.541       .  S
C282        C453   1.449       .  S
C283        C287   1.540   1_655  S
C283        C285   1.536       .  S
C283        H289   1.111       .  S
C284        H290   1.087       .  S
C284        C285   1.363       .  D
C285        C445   1.481       .  S
C286        H291   1.086       .  S
C286        C287   1.371       .  D
C287        C464   1.448       .  S
C292        C293   1.533       .  S
C292        C298   1.528       .  S
C292        C296   1.528       .  S
C292        C439   1.504       .  S
C293        H300   1.087       .  S
C293        C294   1.360       .  D
C294        C295   1.547       .  S
C294        C443   1.447       .  S
C295        C299   1.548       .  S
C295        C297   1.550       .  S
C295        H301   1.111       .  S
C296        H302   1.083       .  S
C296        C297   1.371       .  D
C297        C436   1.493       .  S
C298        H303   1.087       .  S
C298        C299   1.362       .  D
C299        C454   1.448       .  S
C304        C305   1.527   1_545  S
C304        C310   1.532       .  S
C304        C308   1.534       .  S
C304        C427   1.504       .  S
C305        H312   1.087       .  S
C305        C306   1.360       .  D
C306        C307   1.548   1_565  S
C306        C444   1.447       .  S
C307        C311   1.544       .  S
C307        C309   1.549       .  S
C307        H313   1.111       .  S
C308        H314   1.083       .  S
C308        C309   1.368       .  D
C309        C431   1.495       .  S
C310        H315   1.087       .  S
C310        C311   1.362       .  D
C311        C486   1.444       .  S
O316        C324   1.295       .  A
O316       Co336   2.067   1_545  S
O317        C325   1.251       .  A
O317       Co337   1.990       .  S
O318       Co338   1.983       .  S
O319        C327   1.268       .  A
O320        C326   1.252       .  A
O320       Co337   1.993       .  S
O321        C327   1.300       .  A
O321       Co336   2.087   1_545  S
O322        C325   1.243       .  A
O322       Co339   1.962       .  S
O323        C324   1.272       .  A
O323       Co338   1.895       .  S
C324        C460   1.461       .  S
C325        C426   1.427       .  S
C326        C418   1.422       .  S
C327        C432   1.477       .  S
O328        C341   1.249       .  A
O328       Co336   1.984       .  S
O329        C342   1.298       .  A
O329       Co337   2.080       .  S
O330        C343   1.237   1_554  A
O330       Co338   1.951   1_564  S
O331        C344   1.271       .  A
O331       Co339   1.891       .  S
O332        C344   1.298       .  A
O332       Co337   2.072       .  S
O333        C343   1.252       .  A
O333       Co336   2.005       .  S
O334       Co339   1.983   1_565  S
O335        C342   1.268       .  A
Co337       O340   2.251       .  S
Co339       O340   1.916       .  S
C341        C411   1.418       .  S
C342        C456   1.477   1_545  S
C343        C419   1.429       .  S
C344        C428   1.461       .  S
O345        C353   1.266   1_655  A
O345       Co365   1.979   1_655  S
O346        C354   1.267       .  A
O346       Co366   2.013       .  S
O347        C355   1.252       .  A
O347       Co367   1.971       .  S
O348        C356   1.270       .  A
O349        C355   1.264       .  A
O349       Co366   2.011       .  S
O350        C356   1.272       .  A
O350       Co365   1.995       .  S
O351        C354   1.257       .  A
O351       Co368   1.976       .  S
O352        C353   1.278       .  A
C353        C480   1.478   1_455  S
C354        C410   1.429       .  S
C355        C423   1.426       .  S
C356        C450   1.491       .  S
O357        C370   1.264   1_556  A
O357       Co365   1.998       .  S
O358        C371   1.260       .  A
O358       Co366   1.965   1_455  S
O359       Co367   1.953   1_455  S
O360        C373   1.266   1_655  A
O360       Co368   2.015       .  S
O361        C373   1.258       .  A
O361       Co366   1.968   1_455  S
O362        C372   1.267   1_556  A
O362       Co365   2.015       .  S
O363       Co368   1.948   1_455  S
O364        C371   1.279   1_655  A
O364       Co367   2.055       .  S
Co366       O369   2.062   1_655  S
Co367       O369   1.923   1_655  S
Co368       O369   1.923   1_655  S
C370        C422   1.427       .  S
C371        C476   1.486       .  S
C372        C406   1.429       .  S
C373        C446   1.462       .  S
O374        C382   1.269       .  A
O375        C383   1.244       .  A
O375       Co395   1.960       .  S
O376        C384   1.303       .  A
O376       Co396   2.093       .  S
O377        C385   1.249       .  A
O377       Co397   1.991       .  S
O378        C384   1.268       .  A
O379        C385   1.239       .  A
O379       Co394   1.953       .  S
O380        C383   1.252       .  A
O380       Co397   1.995       .  S
O381        C382   1.306       .  A
O381       Co396   2.096       .  S
C382        C470   1.483       .  S
C383        C407   1.430       .  S
C384        C440   1.469       .  S
C385        C415   1.422       .  S
O386        C399   1.272       .  A
O386       Co394   1.909       .  S
O387       Co395   1.986       .  S
O388        C401   1.252       .  A
O388       Co396   1.995       .  S
O389        C402   1.296       .  A
O389       Co397   2.075       .  S
O390        C402   1.268       .  A
O390       Co395   1.909       .  S
O391       Co394   1.980       .  S
O392        C399   1.296       .  A
O392       Co397   2.062       .  S
O393        C400   1.252       .  A
O393       Co396   1.990       .  S
Co394       O398   1.921       .  S
Co395       O398   1.930       .  S
Co397       O398   2.248       .  S
C399        C466   1.465       .  S
C400        C414   1.418       .  S
C401        C403   1.429   1_556  S
C402        C435   1.472       .  S
C403        C404   1.202       .  T
C404        C405   1.406       .  S
C405        C406   1.202       .  T
C407        C408   1.203       .  T
C408        C409   1.407       .  S
C409        C410   1.202       .  T
C411        C412   1.195       .  T
C412        C413   1.395       .  S
C413        C414   1.195       .  T
C415        C416   1.198       .  T
C416        C417   1.400       .  S
C417        C418   1.198       .  T
C419        C420   1.202   1_556  T
C420        C421   1.406       .  S
C421        C422   1.201       .  T
C423        C424   1.201       .  T
C424        C425   1.404       .  S
C425        C426   1.201       .  T
C427        H429   1.087       .  S
C427        C428   1.342       .  D
C428        H430   1.086   1_545  S
C431        H433   1.086       .  S
C431        C432   1.352       .  D
C432        H434   1.083       .  S
C435        H437   1.084       .  S
C435        C436   1.349       .  D
C436        H438   1.086       .  S
C439        H441   1.088       .  S
C439        C440   1.348       .  D
C440        H442   1.086       .  S
C443        C444   1.209       .  T
C445        H447   1.086       .  S
C445        C446   1.343   1_655  D
C446        H448   1.088       .  S
C449        H451   1.087       .  S
C449        C450   1.344   1_655  D
C450        H452   1.086       .  S
C453        C454   1.210       .  T
C455        H457   1.086       .  S
C455        C456   1.352   1_545  D
C456        H458   1.082       .  S
C459        H461   1.088   1_545  S
C459        C460   1.338       .  D
C460        H462   1.087       .  S
C463        C464   1.209       .  T
C465        H467   1.086       .  S
C465        C466   1.346       .  D
C466        H468   1.086       .  S
C469        H471   1.087       .  S
C469        C470   1.342       .  D
C470        H472   1.087       .  S
C473        C474   1.211       .  T
C475        H477   1.086   1_455  S
C475        C476   1.346       .  D
C476        H478   1.086       .  S
C479        H481   1.087       .  S
C479        C480   1.343   1_455  D
C480        H482   1.086       .  S
C483        C484   1.209       .  T
C485        C486   1.208       .  T
