geometry optimzed in LAMMPS
_audit_creation_date              2020-11-30 
_audit_creation_method            'lammps2cif' 
_symmetry_space_group_name_H-M    'P1' 
_symmetry_Int_Tables_number       1 
_symmetry_cell_setting            triclinic 
loop_ 
_symmetry_equiv_pos_as_xyz 
  x,y,z 
_cell_length_a                    56.45720560656332 
_cell_length_b                    44.0852667355182 
_cell_length_c                    25.346679300187873 
_cell_angle_alpha                 89.85804619807506 
_cell_angle_beta                  89.86121791248206 
_cell_angle_gamma                 90.08034780006906 
loop_ 
_atom_site_label 
_atom_site_type_symbol 
_atom_site_fract_x 
_atom_site_fract_y 
_atom_site_fract_z 
_atom_site_charge 
C1          C  0.49890647  0.00975709  0.01996064     0.00240
C2          C  0.49884614  0.98961906  0.97884864     0.00240
C3          C  0.50143392  0.51557614  0.98649858     0.00240
C4          C  0.50109455  0.49412486  0.02571748     0.00240
N5          N  0.16618641  0.08042086  0.71206701    -0.27610
N6          N  0.17080788  0.10624655  0.68749225    -0.35470
C7          C  0.18651558  0.10109983  0.64854014     0.00730
C8          C  0.19200094  0.07059433  0.64894719     0.06750
C9          C  0.17891990  0.05813256  0.68972135    -0.06350
H10         H  0.19285767  0.11807015  0.62102642     0.07420
H11         H  0.17789965  0.03443644  0.70070266     0.08620
Cu12       Cu  0.15467741  0.14678602  0.70713947     0.44170
Cu13       Cu  0.14111692  0.07629074  0.77131281     0.41990
Cu14       Cu  0.10993816  0.14486718  0.81048447     0.43880
N15         N  0.13746773  0.18483925  0.73541986    -0.35000
N16         N  0.12104381  0.18442534  0.77271888    -0.29250
C17         C  0.11422069  0.21313522  0.78261350    -0.05350
C18         C  0.12714183  0.23239244  0.75023032     0.06860
C19         C  0.14164857  0.21367172  0.72088108     0.00660
H20         H  0.10135212  0.21953291  0.81223540     0.08310
H21         H  0.15465051  0.22047910  0.69174406     0.07390
N22         N  0.10263840  0.10190784  0.84084886    -0.36450
N23         N  0.11379919  0.07700347  0.82585122    -0.28630
C24         C  0.10356968  0.05282051  0.84900590    -0.03870
C25         C  0.08535644  0.06296591  0.88085780     0.04740
C26         C  0.08517008  0.09417882  0.87451665     0.02840
H27         H  0.10846664  0.02948840  0.84165448     0.07940
H28         H  0.07240424  0.10990435  0.89077126     0.06780
N29         N  0.16122037  0.42010170  0.70698113    -0.27610
N30         N  0.16935941  0.39382218  0.68957279    -0.35470
C31         C  0.18667975  0.39897848  0.65411032     0.00730
C32         C  0.18938518  0.42994059  0.64864105     0.06750
C33         C  0.17297553  0.44268634  0.68252863    -0.06350
H34         H  0.19578952  0.38152309  0.63208080     0.07420
H35         H  0.16938454  0.46658616  0.68785825     0.08620
Cu36       Cu  0.15511471  0.35214865  0.71034845     0.44170
Cu37       Cu  0.13375061  0.42427079  0.76127135     0.41990
Cu38       Cu  0.10378885  0.35363065  0.79408640     0.43880
N39         N  0.13724640  0.31342823  0.73436715    -0.35000
N40         N  0.11843855  0.31382361  0.76549299    -0.29250
C41         C  0.11167549  0.28508735  0.77561666    -0.05350
C42         C  0.12691512  0.26576696  0.74923863     0.06860
C43         C  0.14284505  0.28450848  0.72340046     0.00660
H44         H  0.09697072  0.27877678  0.80082132     0.08310
H45         H  0.15777474  0.27766969  0.69939902     0.07390
N46         N  0.09427639  0.39560204  0.82405917    -0.36450
N47         N  0.10552845  0.42126989  0.81390314    -0.28630
C48         C  0.09543990  0.44368111  0.84213985    -0.03870
C49         C  0.07703990  0.43147462  0.87186087     0.04740
C50         C  0.07663250  0.40103166  0.85829793     0.02840
H51         H  0.10112416  0.46712373  0.84111684     0.07940
H52         H  0.06421268  0.38394755  0.87157952     0.06780
N53         N  0.33991828  0.91955484  0.69931520    -0.27610
N54         N  0.33067809  0.89319618  0.68545257    -0.35470
C55         C  0.31313716  0.89793037  0.65060634     0.00730
C56         C  0.31146574  0.92874167  0.64181797     0.06750
C57         C  0.32863202  0.94182168  0.67329848    -0.06350
H58         H  0.30303229  0.88021125  0.63156682     0.07420
H59         H  0.33289419  0.96569320  0.67627362     0.08620
Cu60       Cu  0.34348418  0.85210387  0.71175711     0.44170
Cu61       Cu  0.36758504  0.92385852  0.75248173     0.41990
Cu62       Cu  0.38998226  0.85379244  0.80978594     0.43880
N63         N  0.35939707  0.81376735  0.74198323    -0.35000
N64         N  0.37628662  0.81405773  0.77801478    -0.29250
C65         C  0.38216635  0.78524111  0.78982116    -0.05350
C66         C  0.36825895  0.76608842  0.75968021     0.06860
C67         C  0.35410750  0.78494044  0.72977597     0.00660
H68         H  0.39534332  0.77876811  0.81861965     0.08310
H69         H  0.34064198  0.77827670  0.70180126     0.07390
N70         N  0.40088660  0.89682305  0.83282054    -0.36450
N71         N  0.39326727  0.92222999  0.81081677    -0.28630
C72         C  0.40465336  0.94588095  0.83267388    -0.03870
C73         C  0.41983933  0.93489176  0.87092108     0.04740
C74         C  0.41712287  0.90369890  0.86968921     0.02840
H75         H  0.40220268  0.96933191  0.82126261     0.07940
H76         H  0.42684197  0.88716102  0.89258912     0.06780
N77         N  0.34251008  0.57881149  0.69561557    -0.27610
N78         N  0.33174751  0.60476546  0.68503525    -0.35470
C79         C  0.31352067  0.59957257  0.65222042     0.00730
C80         C  0.31292446  0.56897187  0.64118654     0.06750
C81         C  0.33147557  0.55642509  0.66934466    -0.06350
H82         H  0.30205318  0.61694294  0.63623639     0.07420
H83         H  0.33667881  0.53281694  0.67029016     0.08620
Cu84       Cu  0.34275587  0.64648960  0.71268495     0.44170
Cu85       Cu  0.37130879  0.57467329  0.74630389     0.41990
Cu86       Cu  0.38636136  0.64473799  0.81359710     0.43880
N87         N  0.35780151  0.68527604  0.74360198    -0.35000
N88         N  0.37398577  0.68474653  0.78111073    -0.29250
C89         C  0.38048315  0.71337591  0.79241820    -0.05350
C90         C  0.36764864  0.73277012  0.76046094     0.06860
C91         C  0.35346323  0.71419691  0.73000174     0.00660
H92         H  0.39346847  0.71954830  0.82181538     0.08310
H93         H  0.34086704  0.72111933  0.70024439     0.07390
N94         N  0.39950311  0.60257836  0.83417724    -0.36450
N95         N  0.39564884  0.57731907  0.80768170    -0.28630
C96         C  0.40912483  0.55508758  0.82840817    -0.03870
C97         C  0.42165908  0.56672041  0.87112237     0.04740
C98         C  0.41492999  0.59699349  0.87307331     0.02840
H99         H  0.41016433  0.53252066  0.81212678     0.07940
H100        H  0.42114698  0.61419148  0.90001898     0.06780
N101        N  0.16018346  0.92084051  0.29600569    -0.27610
N102        N  0.16171649  0.89661618  0.32648961    -0.35470
C103        C  0.17732711  0.90206118  0.36524392     0.00730
C104        C  0.18693162  0.93081941  0.35797142     0.06750
C105        C  0.17528762  0.94203604  0.31373532    -0.06350
H106        H  0.18094242  0.88614609  0.39657354     0.07420
H107        H  0.17746904  0.96406550  0.29553891     0.08620
Cu108      Cu  0.14464651  0.85603570  0.31102110     0.44170
Cu109      Cu  0.13635794  0.92490998  0.23422980     0.41990
Cu110      Cu  0.10416819  0.85623408  0.20208123     0.43880
N111        N  0.13058537  0.81687446  0.27874256    -0.35000
N112        N  0.11549442  0.81692661  0.23897247    -0.29250
C113        C  0.11067752  0.78811336  0.22530914    -0.05350
C114        C  0.12360858  0.76907796  0.25769096     0.06860
C115        C  0.13603429  0.78804237  0.29107613     0.00660
H116        H  0.09932364  0.78159255  0.19294726     0.08310
H117        H  0.14851081  0.78145240  0.32130760     0.07390
N118        N  0.09676239  0.89834873  0.16982266    -0.36450
N119        N  0.10839510  0.92351284  0.18132593    -0.28630
C120        C  0.09838914  0.94690280  0.15542130    -0.03870
C121        C  0.07953235  0.93584001  0.12631166     0.04740
C122        C  0.07920300  0.90497438  0.13612129     0.02840
H123        H  0.10439834  0.97014583  0.15790790     0.07940
H124        H  0.06661907  0.88862205  0.12106242     0.06780
N125        N  0.15642186  0.58241778  0.30534178    -0.27610
N126        N  0.16672719  0.60840111  0.31718162    -0.35470
C127        C  0.18440410  0.60317737  0.35143076     0.00730
C128        C  0.18483678  0.57241188  0.36344941     0.06750
C129        C  0.16683669  0.56008857  0.33286599    -0.06350
H130        H  0.19614342  0.62069324  0.36557085     0.07420
H131        H  0.16156906  0.53653260  0.33060012     0.08620
Cu132      Cu  0.15482573  0.65002480  0.29028183     0.44170
Cu133      Cu  0.12954409  0.57814036  0.25027883     0.41990
Cu134      Cu  0.10316703  0.64827157  0.20595641     0.43880
N135        N  0.13668936  0.68844202  0.26633431    -0.35000
N136        N  0.11793043  0.68787239  0.23521750    -0.29250
C137        C  0.11042649  0.71645186  0.22714896    -0.05350
C138        C  0.12501867  0.73583310  0.25503140     0.06860
C139        C  0.14143856  0.71733754  0.27947619     0.00660
H140        H  0.09534743  0.72259357  0.20314212     0.08310
H141        H  0.15587654  0.72432159  0.30469078     0.07390
N142        N  0.09310760  0.60589420  0.17866012    -0.36450
N143        N  0.10336537  0.58032316  0.19319501    -0.28630
C144        C  0.09339841  0.55718562  0.16679231    -0.03870
C145        C  0.07589319  0.56865346  0.13392261     0.04740
C146        C  0.07604174  0.59965780  0.14347530     0.02840
H147        H  0.09837926  0.53367533  0.17182985     0.07940
H148        H  0.06419741  0.61654830  0.12748281     0.06780
C149        C  0.24917269  0.50019355  0.50004893    -0.02810
N150        N  0.34570630  0.08299218  0.31179831    -0.27610
N151        N  0.33373500  0.10841345  0.31807766    -0.35470
C152        C  0.31542867  0.10341683  0.35095217     0.00730
C153        C  0.31612054  0.07340044  0.36728324     0.06750
C154        C  0.33558921  0.06121269  0.34129172    -0.06350
H155        H  0.30223657  0.12027921  0.36053207     0.07420
H156        H  0.34167785  0.03796483  0.34257927     0.08620
Cu157      Cu  0.34332682  0.14862954  0.28251154     0.44170
Cu158      Cu  0.37331805  0.07829837  0.25841782     0.41990
Cu159      Cu  0.39174182  0.14660453  0.18894550     0.43880
N160        N  0.35942792  0.18678643  0.25197100    -0.35000
N161        N  0.37746418  0.18641766  0.21863305    -0.29250
C162        C  0.38435501  0.21516871  0.20904915    -0.05350
C163        C  0.36984561  0.23433049  0.23774044     0.06860
C164        C  0.35428437  0.21558355  0.26439349     0.00660
H165        H  0.39881237  0.22157831  0.18322199     0.08310
H166        H  0.34041231  0.22227105  0.29146935     0.07390
N167        N  0.40261841  0.10324735  0.16849959    -0.36450
N168        N  0.39643192  0.07849574  0.19472639    -0.28630
C169        C  0.40730706  0.05442683  0.17302958    -0.03870
C170        C  0.42070982  0.06443313  0.13064181     0.04740
C171        C  0.41745991  0.09553339  0.12919914     0.02840
H172        H  0.40585430  0.03139664  0.18754611     0.07940
H173        H  0.42602185  0.11153193  0.10292484     0.06780
N174        N  0.34018404  0.41984759  0.30015604    -0.27610
N175        N  0.33037826  0.39359488  0.31244700    -0.35470
C176        C  0.31293790  0.39822915  0.34766380     0.00730
C177        C  0.31217477  0.42893509  0.35966860     0.06750
C178        C  0.32973726  0.44181237  0.32829797    -0.06350
H179        H  0.30155412  0.38040387  0.36237437     0.07420
H180        H  0.33466432  0.46549196  0.32586151     0.08620
Cu181      Cu  0.34269281  0.35274647  0.28397012     0.44170
Cu182      Cu  0.36657811  0.42477461  0.24420939     0.41990
Cu183      Cu  0.39667580  0.35574474  0.20609725     0.43880
N184        N  0.36055973  0.31493150  0.25732406    -0.35000
N185        N  0.38026741  0.31572111  0.22906027    -0.29250
C186        C  0.38679472  0.28711882  0.21759329    -0.05350
C187        C  0.37043523  0.26757609  0.24009087     0.06860
C188        C  0.35413463  0.28595622  0.26504607     0.00660
H189        H  0.40218726  0.28107440  0.19439445     0.08310
H190        H  0.33853849  0.27888381  0.28673721     0.07390
N191        N  0.40638089  0.39868095  0.18038320    -0.36450
N192        N  0.39435448  0.42354850  0.19110354    -0.28630
C193        C  0.40402070  0.44701368  0.16477150    -0.03870
C194        C  0.42378018  0.43676149  0.13729548     0.04740
C195        C  0.42444539  0.40581673  0.14821602     0.02840
H196        H  0.39671238  0.46959198  0.16555930     0.07940
H197        H  0.43720548  0.38943989  0.13412712     0.06780
C198        C  0.25069887  0.00030365  0.49931656    -0.02810
C199        C  0.99958211  0.48841379  0.98422596     0.00240
C200        C  0.99920980  0.50561997  0.02930470     0.00240
C201        C  0.00204505  0.00626128  0.96719497     0.00240
C202        C  0.00139459  0.98695894  0.01024145     0.00240
N203        N  0.84278738  0.07647805  0.69165297    -0.27610
N204        N  0.83535535  0.10276491  0.67287949    -0.35470
C205        C  0.81945896  0.09767223  0.63447819     0.00730
C206        C  0.81697857  0.06662475  0.62843034     0.06750
C207        C  0.83195613  0.05397192  0.66558606    -0.06350
H208        H  0.80987621  0.11529165  0.61386499     0.07420
H209        H  0.83448049  0.03010485  0.67385076     0.08620
Cu210      Cu  0.84673979  0.14416446  0.70119727     0.44170
Cu211      Cu  0.86614041  0.07186066  0.75373896     0.41990
Cu212      Cu  0.88667764  0.14193399  0.81220127     0.43880
N213        N  0.86183873  0.18245700  0.73378221    -0.35000
N214        N  0.87661048  0.18197478  0.77417485    -0.29250
C215        C  0.88358970  0.21061626  0.78440472    -0.05350
C216        C  0.87257379  0.22987604  0.74877489     0.06860
C217        C  0.85892738  0.21121694  0.71739608     0.00660
H218        H  0.89575490  0.21691708  0.81541047     0.08310
H219        H  0.84779243  0.21795518  0.68476486     0.07390
N220        N  0.89635733  0.09878200  0.83867626    -0.36450
N221        N  0.88937937  0.07320815  0.81647646    -0.28630
C222        C  0.90159395  0.04987754  0.83737764    -0.03870
C223        C  0.91701321  0.06119406  0.87495304     0.04740
C224        C  0.91300475  0.09230965  0.87470695     0.02840
H225        H  0.90077298  0.02683824  0.82293092     0.07940
H226        H  0.92284809  0.10932130  0.89620085     0.06780
N227        N  0.84598050  0.41814413  0.69510918    -0.27610
N228        N  0.84100286  0.39291119  0.66920781    -0.35470
C229        C  0.82533167  0.39929704  0.63080148     0.00730
C230        C  0.82001147  0.42987821  0.63317087     0.06750
C231        C  0.83350064  0.44115495  0.67415936    -0.06350
H232        H  0.81777740  0.38273905  0.60427269     0.07420
H233        H  0.83403214  0.46432343  0.68808012     0.08620
Cu234      Cu  0.85440740  0.35053126  0.68959453     0.44170
Cu235      Cu  0.86940938  0.42051884  0.75792628     0.41990
Cu236      Cu  0.89849312  0.35011424  0.79206285     0.43880
N237        N  0.86832249  0.31101815  0.72214064    -0.35000
N238        N  0.88444282  0.31092470  0.75988006    -0.29250
C239        C  0.88871496  0.28211520  0.77472590    -0.05350
C240        C  0.87461102  0.26313969  0.74483526     0.06860
C241        C  0.86196119  0.28221774  0.71181479     0.00660
H242        H  0.90081547  0.27557374  0.80573480     0.08310
H243        H  0.84865261  0.27573867  0.68334600     0.07390
N244        N  0.90701611  0.39161483  0.82505417    -0.36450
N245        N  0.89576493  0.41715811  0.81454347    -0.28630
C246        C  0.90528124  0.43957045  0.84357746    -0.03870
C247        C  0.92341004  0.42756627  0.87407974     0.04740
C248        C  0.92415844  0.39714191  0.86037090     0.02840
H249        H  0.89968031  0.46300874  0.84176679     0.07940
H250        H  0.93670569  0.38027450  0.87357189     0.06780
N251        N  0.84882470  0.92398513  0.31793539    -0.27610
N252        N  0.83959566  0.89789639  0.33370896    -0.35470
C253        C  0.82252935  0.90327296  0.36951273     0.00730
C254        C  0.82094612  0.93424802  0.37707689     0.06750
C255        C  0.83776624  0.94667497  0.34338708    -0.06350
H256        H  0.81140553  0.88592761  0.38695836     0.07420
H257        H  0.84127852  0.97052353  0.33682318     0.08620
Cu258      Cu  0.84899814  0.85605191  0.30386926     0.44170
Cu259      Cu  0.87456795  0.92788754  0.25923631     0.41990
Cu260      Cu  0.88549061  0.85734028  0.18899016     0.43880
N261        N  0.86100791  0.81702368  0.26783115    -0.35000
N262        N  0.87460130  0.81728340  0.22534218    -0.29250
C263        C  0.88027726  0.78850392  0.21289606    -0.05350
C264        C  0.86958355  0.76932746  0.24926113     0.06860
C265        C  0.85747430  0.78820003  0.28339881     0.00660
H266        H  0.89150184  0.78207764  0.18016064     0.08310
H267        H  0.84717581  0.78156833  0.31756607     0.07390
N268        N  0.89937029  0.89923463  0.16677340    -0.36450
N269        N  0.89703669  0.92451680  0.19419495    -0.28630
C270        C  0.91143447  0.94588186  0.17331754    -0.03870
C271        C  0.92352711  0.93339635  0.13079081     0.04740
C272        C  0.91473898  0.90405103  0.12715810     0.02840
H273        H  0.91364450  0.96844041  0.18927016     0.07940
H274        H  0.91964933  0.88687728  0.09889279     0.06780
N275        N  0.84110895  0.58153322  0.30268997    -0.27610
N276        N  0.83583429  0.60698990  0.32757473    -0.35470
C277        C  0.81944255  0.60104341  0.36488982     0.00730
C278        C  0.81388216  0.57049496  0.36275067     0.06750
C279        C  0.82808046  0.55879002  0.32317567    -0.06350
H280        H  0.81178024  0.61781264  0.39089065     0.07420
H281        H  0.82896450  0.53542485  0.31038639     0.08620
Cu282      Cu  0.85014170  0.64890672  0.30726535     0.44170
Cu283      Cu  0.86596419  0.57868771  0.24233702     0.41990
Cu284      Cu  0.89399758  0.64898631  0.20241364     0.43880
N285        N  0.86432243  0.68811454  0.27406409    -0.35000
N286        N  0.88007710  0.68814721  0.23536084    -0.29250
C287        C  0.88453709  0.71698334  0.22080795    -0.05350
C288        C  0.87097235  0.73599472  0.25191985     0.06860
C289        C  0.85842865  0.71694229  0.28531839     0.00660
H290        H  0.89655015  0.72354702  0.18948529     0.08310
H291        H  0.84555613  0.72347106  0.31484052     0.07390
N292        N  0.90351854  0.60687210  0.17291084    -0.36450
N293        N  0.89289031  0.58128852  0.18648365    -0.28630
C294        C  0.90332292  0.55816816  0.16093072    -0.03870
C295        C  0.92138155  0.56967174  0.12945333     0.04740
C296        C  0.92110047  0.60066807  0.13872025     0.02840
H297        H  0.89846009  0.53458508  0.16592170     0.07940
H298        H  0.93333381  0.61744305  0.12346628     0.06780
N299        N  0.64870774  0.08135291  0.32112009    -0.27610
N300        N  0.66052510  0.10677853  0.32923333    -0.35470
C301        C  0.67834002  0.10147049  0.36298311     0.00730
C302        C  0.67751931  0.07128303  0.37814281     0.06750
C303        C  0.65849817  0.05925569  0.35038896    -0.06350
H304        H  0.69147215  0.11822458  0.37360035     0.07420
H305        H  0.65264511  0.03588102  0.34999334     0.08620
Cu306      Cu  0.65233907  0.14759684  0.29421696     0.44170
Cu307      Cu  0.62212781  0.07688518  0.26499907     0.41990
Cu308      Cu  0.61139631  0.14525350  0.18747035     0.43880
N309        N  0.63883163  0.18611405  0.25954636    -0.35000
N310        N  0.62374644  0.18556391  0.21981443    -0.29250
C311        C  0.61769330  0.21426128  0.20755618    -0.05350
C312        C  0.62953365  0.23361358  0.24150714     0.06860
C313        C  0.64275667  0.21498313  0.27388260     0.00660
H314        H  0.60533553  0.22049889  0.17686651     0.08310
H315        H  0.65422996  0.22180531  0.30584455     0.07390
N316        N  0.59852075  0.10247872  0.16817756    -0.36450
N317        N  0.60119302  0.07795179  0.19762190    -0.28630
C318        C  0.58861163  0.05506903  0.17632669    -0.03870
C319        C  0.57777286  0.06546791  0.13055147     0.04740
C320        C  0.58454892  0.09572133  0.12706496     0.02840
H321        H  0.58676051  0.03293861  0.19430279     0.07940
H322        H  0.57911655  0.11208791  0.09767938     0.06780
N323        N  0.65781482  0.42019386  0.29935425    -0.27610
N324        N  0.66103146  0.39492340  0.32642739    -0.35470
C325        C  0.67557855  0.40067893  0.36717406     0.00730
C326        C  0.68195016  0.43113888  0.36581602     0.06750
C327        C  0.67059258  0.44251279  0.32142674    -0.06350
H328        H  0.68126264  0.38376058  0.39536242     0.07420
H329        H  0.67184368  0.46513082  0.30519753     0.08620
Cu330      Cu  0.64710273  0.35342877  0.30337542     0.44170
Cu331      Cu  0.63547090  0.42359794  0.23480685     0.41990
Cu332      Cu  0.61036341  0.35403154  0.18537729     0.43880
N333        N  0.63452348  0.31465054  0.26639241    -0.35000
N334        N  0.62119810  0.31485601  0.22353951    -0.29250
C335        C  0.61696749  0.28609083  0.20861591    -0.05350
C336        C  0.62833114  0.26690757  0.24351386     0.06860
C337        C  0.63925455  0.28574443  0.27964562     0.00660
H338        H  0.60684396  0.27970390  0.17422465     0.08310
H339        H  0.65019383  0.27901482  0.31261126     0.07390
N340        N  0.60145537  0.39647907  0.15645191    -0.36450
N341        N  0.61025661  0.42199818  0.17548799    -0.28630
C342        C  0.59892405  0.44556442  0.15322837    -0.03870
C343        C  0.58255852  0.43433575  0.11774230     0.04740
C344        C  0.58453930  0.40313799  0.12098618     0.02840
H345        H  0.60157696  0.46906377  0.16395064     0.07940
H346        H  0.57337097  0.38653999  0.10183493     0.06780
N347        N  0.64825184  0.91798249  0.67554237    -0.27610
N348        N  0.66077162  0.89299131  0.66898950    -0.35470
C349        C  0.67843641  0.89841005  0.63467523     0.00730
C350        C  0.67681940  0.92819735  0.61763882     0.06750
C351        C  0.65746074  0.93989590  0.64477291    -0.06350
H352        H  0.69207078  0.88212629  0.62507346     0.07420
H353        H  0.65105160  0.96300679  0.64389051     0.08620
Cu354      Cu  0.65385678  0.85271681  0.70725853     0.44170
Cu355      Cu  0.62159427  0.92237167  0.73175852     0.41990
Cu356      Cu  0.61138849  0.85440267  0.81130161     0.43880
N357        N  0.64139442  0.81407545  0.74364999    -0.35000
N358        N  0.62539035  0.81428961  0.78173164    -0.29250
C359        C  0.62017155  0.78542933  0.79500933    -0.05350
C360        C  0.63367431  0.76634421  0.76369841     0.06860
C361        C  0.64689589  0.78529668  0.73168237     0.00660
H362        H  0.60741732  0.77887745  0.82485683     0.08310
H363        H  0.65933021  0.77873328  0.70127082     0.07390
N364        N  0.59828018  0.89717650  0.82957003    -0.36450
N365        N  0.60076938  0.92151481  0.79952274    -0.28630
C366        C  0.58818992  0.94443927  0.82068050    -0.03870
C367        C  0.57756484  0.93427207  0.86699478     0.04740
C368        C  0.58446534  0.90411490  0.87095698     0.02840
H369        H  0.58621437  0.96642994  0.80230229     0.07940
H370        H  0.57925214  0.88792577  0.90092013     0.06780
N371        N  0.65388540  0.58123177  0.68073927    -0.27610
N372        N  0.66642637  0.60628208  0.67461216    -0.35470
C373        C  0.68475283  0.60058677  0.64214649     0.00730
C374        C  0.68342044  0.57057976  0.62562320     0.06750
C375        C  0.66354364  0.55915954  0.65139449    -0.06350
H376        H  0.69843542  0.61698208  0.63329745     0.07420
H377        H  0.65675249  0.53622671  0.65004314     0.08620
Cu378      Cu  0.65760145  0.64715618  0.70974634     0.44170
Cu379      Cu  0.62615044  0.57684004  0.73381950     0.41990
Cu380      Cu  0.61038822  0.64485829  0.80563667     0.43880
N381        N  0.64284496  0.68553325  0.74355793    -0.35000
N382        N  0.62553786  0.68479177  0.77875276    -0.29250
C383        C  0.61963135  0.71338335  0.79178592    -0.05350
C384        C  0.63389574  0.73299423  0.76322906     0.06860
C385        C  0.64836229  0.71458162  0.73304753     0.00660
H386        H  0.60581392  0.71938532  0.81948694     0.08310
H387        H  0.66181569  0.72171172  0.70518636     0.07390
N388        N  0.59730161  0.60213819  0.82328769    -0.36450
N389        N  0.60261821  0.57732977  0.79659146    -0.28630
C390        C  0.59058835  0.55373514  0.81726363    -0.03870
C391        C  0.57697380  0.56434900  0.85875341     0.04740
C392        C  0.58182072  0.59503187  0.86166451     0.02840
H393        H  0.59159067  0.53068066  0.80293398     0.07940
H394        H  0.57413271  0.61118688  0.88879001     0.06780
C395        C  0.75141793  0.49660106  0.50032334    -0.02810
C396        C  0.74772403  0.99988715  0.49851993    -0.02810
C397        C  0.70046028  0.55297596  0.59250493    -0.06450
C398        C  0.70156260  0.52152595  0.59979016    -0.17570
C399        C  0.71666437  0.50307519  0.57005455     0.10750
C400        C  0.73374300  0.51631788  0.53496699    -0.06370
C401        C  0.73139819  0.54806190  0.52602225    -0.17610
C402        C  0.71500404  0.56615673  0.55329602     0.10780
S403        S  0.71319828  0.46261735  0.57889595    -0.32570
S404        S  0.71145801  0.60523403  0.53295271    -0.32580
H405        H  0.73205468  0.60749081  0.50184403     0.28790
H406        H  0.69036827  0.46307665  0.60126243     0.28790
H407        H  0.69038005  0.51095203  0.62920129     0.19380
H408        H  0.74155669  0.55911111  0.49558236     0.19390
C409        C  0.69418502  0.94545831  0.58511697    -0.06450
C410        C  0.69779212  0.97600399  0.59714945    -0.17570
C411        C  0.71468400  0.99370591  0.57081183     0.10750
C412        C  0.72961444  0.98037004  0.53115548    -0.06370
C413        C  0.72564357  0.94935725  0.51965745    -0.17610
C414        C  0.70792520  0.93230633  0.54464630     0.10780
S415        S  0.71781806  0.03246257  0.59352839    -0.32570
S416        S  0.70273010  0.89464825  0.51961355    -0.32580
H417        H  0.67796486  0.89599338  0.52545451     0.28790
H418        H  0.69761419  0.03392958  0.62596112     0.28790
H419        H  0.68771066  0.98600406  0.62892262     0.19380
H420        H  0.73542615  0.93811686  0.48888274     0.19390
C421        C  0.69869176  0.44713536  0.40183154    -0.06450
C422        C  0.71634501  0.43034449  0.42741298    -0.17570
C423        C  0.73312561  0.44375173  0.46101107     0.10750
C424        C  0.73402962  0.47632812  0.46618383    -0.06370
C425        C  0.71576494  0.49254668  0.43972463    -0.17610
C426        C  0.69787365  0.47861368  0.41076708     0.10780
S427        S  0.75176130  0.41602697  0.49311696    -0.32570
S428        S  0.67363841  0.50253821  0.39057637    -0.32580
H429        H  0.65608905  0.48062041  0.40104210     0.28790
H430        H  0.74783448  0.42558743  0.54491430     0.28790
H431        H  0.71699581  0.40602528  0.42169332     0.19380
H432        H  0.71503869  0.51701280  0.44244360     0.19390
C433        C  0.73029402  0.01953457  0.46471065    -0.06450
C434        C  0.72618766  0.05051503  0.47619332    -0.17570
C435        C  0.70845552  0.06738427  0.45123383     0.10750
C436        C  0.69505956  0.05422574  0.41027461    -0.06370
C437        C  0.69908451  0.02382899  0.39768868    -0.17610
C438        C  0.71582240  0.00624418  0.42441055     0.10780
S439        S  0.70266448  0.10465134  0.47734395    -0.32570
S440        S  0.71933574  0.96770124  0.40127774    -0.32580
H441        H  0.69679475  0.96457103  0.37834833     0.28790
H442        H  0.67791963  0.10249392  0.47198338     0.28790
H443        H  0.73566493  0.06179123  0.50731591     0.19380
H444        H  0.68945320  0.01376106  0.36533475     0.19390
C445        C  0.79682405  0.55376630  0.39634852    -0.06450
C446        C  0.79924457  0.55534418  0.45102547    -0.17570
C447        C  0.78506927  0.53800895  0.48520496     0.10750
C448        C  0.76712812  0.51806534  0.46441636    -0.06370
C449        C  0.76494825  0.51747847  0.40851496    -0.17610
C450        C  0.77918218  0.53498265  0.37507156     0.10780
S451        S  0.79324137  0.54151795  0.55391883    -0.32570
S452        S  0.77371267  0.53233818  0.30514182    -0.32580
H453        H  0.77914194  0.56283274  0.29395060     0.28790
H454        H  0.77063102  0.54227489  0.57603185     0.28790
H455        H  0.81303858  0.56962599  0.46739997     0.19380
H456        H  0.75280889  0.50242971  0.38894990     0.19390
C457        C  0.76569197  0.98211475  0.46252270    -0.06450
C458        C  0.77771853  0.95708634  0.48511802    -0.17570
C459        C  0.79589972  0.94156268  0.45925795     0.10750
C460        C  0.80295167  0.95074418  0.40844615    -0.06370
C461        C  0.79232852  0.97625150  0.38607964    -0.17610
C462        C  0.77465114  0.99271783  0.41237633     0.10780
S463        S  0.81026157  0.91134654  0.49498582    -0.32570
S464        S  0.76535316  0.02717077  0.37907494    -0.32580
H465        H  0.78562420  0.03128294  0.34743482     0.28790
H466        H  0.83305373  0.91739507  0.47499345     0.28790
H467        H  0.77320554  0.94942616  0.52413438     0.19380
H468        H  0.79792997  0.98334684  0.34709708     0.19390
C469        C  0.76968335  0.47813572  0.53447225    -0.06450
C470        C  0.76841053  0.47892594  0.59048424    -0.17570
C471        C  0.78393238  0.46291103  0.62294786     0.10750
C472        C  0.80269162  0.44652303  0.60054829    -0.06370
C473        C  0.80558885  0.44690012  0.54587395    -0.17610
C474        C  0.78993733  0.46261874  0.51269770     0.10780
S475        S  0.77842330  0.46402026  0.69305655    -0.32570
S476        S  0.79812340  0.46140097  0.44367932    -0.32580
H477        H  0.77535828  0.45826470  0.42309159     0.28790
H478        H  0.78487074  0.43368492  0.70247086     0.28790
H479        H  0.75559451  0.49254549  0.61092132     0.19380
H480        H  0.82051643  0.43497510  0.52871040     0.19390
C481        C  0.79995400  0.05007371  0.59480576    -0.06450
C482        C  0.78886698  0.02448533  0.61601563    -0.17570
C483        C  0.77251034  0.00732847  0.58729121     0.10750
C484        C  0.76496376  0.01763605  0.53598650    -0.06370
C485        C  0.77751963  0.04265550  0.51454989    -0.17610
C486        C  0.79468490  0.05866964  0.54271889     0.10780
S487        S  0.76318634  0.97234411  0.61909786    -0.32570
S488        S  0.81014720  0.08862681  0.50839024    -0.32580
H489        H  0.83229171  0.08253612  0.53140486     0.28790
H490        H  0.78264238  0.96903314  0.65322243     0.28790
H491        H  0.79314282  0.01770552  0.65591541     0.19380
H492        H  0.77415183  0.04998244  0.47482154     0.19390
C493        C  0.98025257  0.01994496  0.94086891    -0.06450
C494        C  0.95912335  0.00284558  0.93649570    -0.17570
C495        C  0.93794223  0.01571182  0.91769120     0.10750
C496        C  0.93797927  0.04573540  0.89808050    -0.06370
C497        C  0.95922635  0.06188103  0.89814738    -0.17610
C498        C  0.98004558  0.04994437  0.91908746     0.10780
S499        S  0.91135564  0.99322801  0.92284986    -0.32570
S500        S  0.00492236  0.07572694  0.91833321    -0.32580
H501        H  0.99917111  0.09016516  0.87042320     0.28790
H502        H  0.89625770  0.01784628  0.93338097     0.28790
H503        H  0.95878102  0.97934577  0.94867235     0.19380
H504        H  0.95959060  0.08461995  0.88195688     0.19390
C505        C  0.97960231  0.97490577  0.03749994    -0.06450
C506        C  0.97876366  0.94339054  0.04600028    -0.17570
C507        C  0.96185216  0.92982522  0.07838016     0.10750
C508        C  0.94310474  0.94735908  0.09924524    -0.06370
C509        C  0.94350833  0.97896284  0.09051532    -0.17610
C510        C  0.96200274  0.99303457  0.06200898     0.10780
S511        S  0.96760238  0.89095217  0.09666057    -0.32570
S512        S  0.96259155  0.03394724  0.06152025    -0.32580
H513        H  0.98725612  0.03708677  0.05689397     0.28790
H514        H  0.96165729  0.89513200  0.15010798     0.28790
H515        H  0.99257873  0.92901739  0.03047897     0.19380
H516        H  0.92973498  0.99299045  0.10750124     0.19390
C517        C  0.94030231  0.44437456  0.90827209    -0.06450
C518        C  0.94606573  0.47445605  0.89509875    -0.17570
C519        C  0.96417554  0.49021048  0.92129814     0.10750
C520        C  0.97738739  0.47539620  0.96109764    -0.06370
C521        C  0.97092058  0.44574780  0.97546245    -0.17610
C522        C  0.95211125  0.43064168  0.95124699     0.10780
S523        S  0.97064014  0.52850379  0.90101075    -0.32570
S524        S  0.94366116  0.39451077  0.97896490    -0.32580
H525        H  0.91931491  0.39824959  0.96918979     0.28790
H526        H  0.95042254  0.53295127  0.86962332     0.28790
H527        H  0.93707579  0.48529531  0.86251355     0.19380
H528        H  0.98065576  0.43390949  0.00572320     0.19390
C529        C  0.97663891  0.51885894  0.05080700    -0.06450
C530        C  0.96890243  0.54670895  0.02998030    -0.17570
C531        C  0.95005457  0.56284249  0.05239519     0.10750
C532        C  0.93919907  0.55199450  0.09909933    -0.06370
C533        C  0.94651745  0.52395801  0.11946005    -0.17610
C534        C  0.96476022  0.50730279  0.09595194     0.10780
S535        S  0.94047571  0.59657370  0.01834991    -0.32570
S536        S  0.97213616  0.47224182  0.12773921    -0.32580
H537        H  0.97122218  0.45577972  0.08095556     0.28790
H538        H  0.91633181  0.59263245  0.03044545     0.28790
H539        H  0.97788338  0.55646397  0.99635637     0.19380
H540        H  0.93842160  0.51519197  0.15515601     0.19390
C541        C  0.29868698  0.05644395  0.40012537    -0.06450
C542        C  0.29535693  0.02569467  0.38913750    -0.17570
C543        C  0.28048271  0.00730391  0.41964967     0.10750
C544        C  0.26692299  0.02017522  0.46209546    -0.06370
C545        C  0.26876490  0.05201972  0.46890797    -0.17610
C546        C  0.28531538  0.06959744  0.44121863     0.10780
S547        S  0.28105908  0.96711332  0.40470764    -0.32570
S548        S  0.28972231  0.10785665  0.46407959    -0.32580
H549        H  0.31455232  0.10680600  0.45949227     0.28790
H550        H  0.30192320  0.96678808  0.37427454     0.28790
H551        H  0.30480663  0.01568082  0.35640919     0.19380
H552        H  0.25829870  0.06366930  0.49809132     0.19390
C553        C  0.26507880  0.48111041  0.46123104    -0.06450
C554        C  0.26800153  0.44943068  0.46855413    -0.17570
C555        C  0.28407574  0.43233756  0.43899565     0.10750
C556        C  0.29563376  0.44556406  0.39516764    -0.06370
C557        C  0.29122008  0.47612777  0.38400596    -0.17610
C558        C  0.27702987  0.49418610  0.41629713     0.10780
S559        S  0.29030075  0.39473608  0.46320788    -0.32570
S560        S  0.27550499  0.53340250  0.39476213    -0.32580
H561        H  0.27621745  0.54742006  0.44401344     0.28790
H562        H  0.31493652  0.39736188  0.45587636     0.28790
H563        H  0.25870834  0.43744226  0.49929396     0.19380
H564        H  0.29925691  0.48655996  0.34966414     0.19390
C565        C  0.02153222  0.51879080  0.05139172    -0.06450
C566        C  0.02802023  0.54801936  0.03460449    -0.17570
C567        C  0.04701240  0.56362988  0.05713071     0.10750
C568        C  0.05885539  0.55106399  0.10114950    -0.06370
C569        C  0.05324318  0.52121415  0.11623533    -0.17610
C570        C  0.03526619  0.50470766  0.09129412     0.10780
S571        S  0.05585949  0.59849101  0.02541277    -0.32570
S572        S  0.03138806  0.46621728  0.11380031    -0.32580
H573        H  0.01372091  0.45797402  0.07855783     0.28790
H574        H  0.08018765  0.59443446  0.03505759     0.28790
H575        H  0.01830898  0.55890096  0.00317743     0.19380
H576        H  0.06250045  0.51069685  0.14881257     0.19390
C577        C  0.20135384  0.55533102  0.39854996    -0.06450
C578        C  0.20508811  0.52455830  0.38798326    -0.17570
C579        C  0.21950347  0.50629536  0.41955423     0.10750
C580        C  0.23236804  0.51929182  0.46306800    -0.06370
C581        C  0.22978345  0.55101396  0.47020222    -0.17610
C582        C  0.21358934  0.56837503  0.44142501     0.10780
S583        S  0.22036443  0.46701282  0.39847879    -0.32570
S584        S  0.20821380  0.60618185  0.46539558    -0.32580
H585        H  0.18347472  0.60416166  0.45964697     0.28790
H586        H  0.22111181  0.45302875  0.44785127     0.28790
H587        H  0.19643929  0.51416760  0.35453314     0.19380
H588        H  0.23962047  0.56290445  0.49999953     0.19390
C589        C  0.06229203  0.95247736  0.09331388    -0.06450
C590        C  0.05622450  0.94009557  0.04424804    -0.17570
C591        C  0.03733202  0.95154323  0.01471253     0.10750
C592        C  0.02390714  0.97606491  0.03490177    -0.06370
C593        C  0.03054028  0.98909942  0.08310670    -0.17610
C594        C  0.04973781  0.97796109  0.11193064     0.10780
S595        S  0.03084349  0.93228226  0.95366439    -0.32570
S596        S  0.05597813  0.99538736  0.17434750    -0.32580
H597        H  0.07586179  0.01075668  0.15392337     0.28790
H598        H  0.00725344  0.94147409  0.94826557     0.28790
H599        H  0.06582399  0.92055556  0.02959868     0.19380
H600        H  0.02028785  0.00772652  0.09903280     0.19390
C601        C  0.23429524  0.98192295  0.46048282    -0.06450
C602        C  0.23434116  0.94973806  0.46038813    -0.17570
C603        C  0.22058382  0.93264427  0.42561525     0.10750
C604        C  0.20450051  0.94729852  0.39140168    -0.06370
C605        C  0.20496095  0.97907204  0.38919028    -0.17610
C606        C  0.22017534  0.99637203  0.42074880     0.10780
S607        S  0.22654756  0.89251103  0.42415767    -0.32570
S608        S  0.21950242  0.03714526  0.41107666    -0.32580
H609        H  0.20904904  0.03708035  0.36074888     0.28790
H610        H  0.22510206  0.89041334  0.36886763     0.28790
H611        H  0.24615317  0.93712947  0.48555367     0.19380
H612        H  0.19297850  0.99080832  0.36304093     0.19390
C613        C  0.26529110  0.52082535  0.53640581    -0.06450
C614        C  0.29033622  0.52132401  0.52860425    -0.17570
C615        C  0.30582596  0.53746249  0.56066754     0.10750
C616        C  0.29700203  0.55346786  0.60400426    -0.06370
C617        C  0.27263905  0.55363669  0.61347746    -0.17610
C618        C  0.25672262  0.53750780  0.58151258     0.10780
S619        S  0.33691032  0.53669928  0.54368137    -0.32570
S620        S  0.22656002  0.53798201  0.60625107    -0.32580
H621        H  0.21409405  0.53589887  0.55915940     0.28790
H622        H  0.34160642  0.56676012  0.55894856     0.28790
H623        H  0.29886812  0.50859582  0.49793487     0.19380
H624        H  0.26598253  0.56572033  0.64760917     0.19390
C625        C  0.29631360  0.94420883  0.60309670    -0.06450
C626        C  0.27175949  0.94330964  0.60944472    -0.17570
C627        C  0.25656583  0.96018607  0.57689281     0.10750
C628        C  0.26616999  0.97865140  0.53497036    -0.06370
C629        C  0.29130855  0.97857515  0.52984739    -0.17610
C630        C  0.30607836  0.96153067  0.56216270     0.10780
S631        S  0.22575509  0.95841036  0.59685378    -0.32570
S632        S  0.33753293  0.96329009  0.54924243    -0.32580
H633        H  0.34220921  0.93305337  0.56361191     0.28790
H634        H  0.21485971  0.96198454  0.54807825     0.28790
H635        H  0.26435684  0.93013554  0.64167982     0.19380
H636        H  0.30050559  0.99288262  0.50226483     0.19390
C637        C  0.02231011  0.47662274  0.96109921    -0.06450
C638        C  0.02962849  0.44720006  0.97472844    -0.17570
C639        C  0.04887237  0.43326198  0.95011784     0.10750
C640        C  0.06013450  0.44769808  0.90699050    -0.06370
C641        C  0.05378548  0.47771548  0.89492128    -0.17610
C642        C  0.03539939  0.49252939  0.92213429     0.10780
S643        S  0.05866898  0.39770896  0.97773562    -0.32570
S644        S  0.02867475  0.53125526  0.90514115    -0.32580
H645        H  0.04805566  0.53623950  0.87123174     0.28790
H646        H  0.08281105  0.40279090  0.96689763     0.28790
H647        H  0.02032779  0.43451006  0.00465374     0.19380
H648        H  0.06264002  0.48924104  0.86271841     0.19390
C649        C  0.23405006  0.47948601  0.53867204    -0.06450
C650        C  0.20888078  0.47867755  0.53397328    -0.17570
C651        C  0.19430305  0.46205447  0.56773922     0.10750
C652        C  0.20427250  0.44589222  0.60970253    -0.06370
C653        C  0.22877735  0.44625105  0.61641775    -0.17610
C654        C  0.24377737  0.46282141  0.58270186     0.10780
S655        S  0.16283270  0.46268122  0.55512694    -0.32570
S656        S  0.27442673  0.46281926  0.60391468    -0.32580
H657        H  0.28581435  0.46408248  0.55525089     0.28790
H658        H  0.15848870  0.43269140  0.57153808     0.28790
H659        H  0.19959964  0.49144237  0.50440184     0.19380
H660        H  0.23629331  0.43414624  0.64965863     0.19390
C661        C  0.02588051  0.01578581  0.94703821    -0.06450
C662        C  0.03961677  0.03501351  0.97912986    -0.17570
C663        C  0.05973242  0.04973200  0.95943990     0.10750
C664        C  0.06699641  0.04436472  0.90703188    -0.06370
C665        C  0.05469184  0.02299538  0.87663230    -0.17610
C666        C  0.03399440  0.00908921  0.89542251     0.10780
S667        S  0.07446747  0.07636233  0.00217327    -0.32570
S668        S  0.01857406  0.98469197  0.84968515    -0.32580
H669        H  0.99967436  0.97562632  0.88178737     0.28790
H670        H  0.09710122  0.07270051  0.97984348     0.28790
H671        H  0.03343298  0.04070321  0.01832187     0.19380
H672        H  0.06030134  0.01869664  0.83645035     0.19390
C673        C  0.23566373  0.02041011  0.53876546    -0.06450
C674        C  0.21059290  0.02217259  0.53358680    -0.17570
C675        C  0.19623226  0.03915483  0.56711943     0.10750
C676        C  0.20640004  0.05405046  0.61026451    -0.06370
C677        C  0.23078407  0.05216436  0.61810364    -0.17610
C678        C  0.24555800  0.03597154  0.58364883     0.10780
S679        S  0.16505025  0.04107123  0.55083325    -0.32570
S680        S  0.27618127  0.03498927  0.60466288    -0.32580
H681        H  0.28715715  0.03725026  0.55556747     0.28790
H682        H  0.15597404  0.05003688  0.59978391     0.28790
H683        H  0.20109765  0.00949590  0.50443328     0.19380
H684        H  0.23843160  0.06331297  0.65213102     0.19390
C685        C  0.44100109  0.45378742  0.10341419    -0.06450
C686        C  0.45457872  0.43690128  0.06730315    -0.17570
C687        C  0.47321935  0.44992027  0.03904322     0.10750
C688        C  0.47835161  0.48099350  0.04532913    -0.06370
C689        C  0.46295544  0.49886787  0.07546741    -0.17610
C690        C  0.44518866  0.48557348  0.10656274     0.10780
S691        S  0.48968426  0.42551800  0.99532759    -0.32570
S692        S  0.43112548  0.51029661  0.15340871    -0.32580
H693        H  0.43554043  0.49086295  0.19639842     0.28790
H694        H  0.49565169  0.44827661  0.95870998     0.28790
H695        H  0.45108113  0.41302149  0.06140783     0.19380
H696        H  0.46627439  0.52299398  0.07884794     0.19390
C697        C  0.52327128  0.48113235  0.04923833    -0.06450
C698        C  0.53956523  0.46591947  0.01651538    -0.17570
C699        C  0.55939696  0.45109736  0.03744570     0.10750
C700        C  0.56325132  0.45139674  0.09237060    -0.06370
C701        C  0.54738153  0.46683100  0.12501444    -0.17610
C702        C  0.52748742  0.48141858  0.10452510     0.10780
S703        S  0.57897490  0.43200723  0.99214868    -0.32570
S704        S  0.50842022  0.49930944  0.15235551    -0.32580
H705        H  0.50241393  0.52426147  0.12112667     0.28790
H706        H  0.59965120  0.43566464  0.02228872     0.28790
H707        H  0.53654551  0.46485842  0.97444349     0.19380
H708        H  0.55020753  0.46686077  0.16728122     0.19390
C709        C  0.44046783  0.55221615  0.90409806    -0.06450
C710        C  0.45742989  0.57131136  0.92733644    -0.17570
C711        C  0.47597776  0.55990231  0.95756225     0.10750
C712        C  0.47908092  0.52830624  0.96308941    -0.06370
C713        C  0.46222552  0.50897368  0.93991098    -0.17610
C714        C  0.44253167  0.52049866  0.91271256     0.10780
S715        S  0.49482789  0.58712306  0.98919272    -0.32570
S716        S  0.42039275  0.49341391  0.89298950    -0.32580
H717        H  0.40118266  0.51232971  0.90584093     0.28790
H718        H  0.48827426  0.57668291  0.03965991     0.28790
H719        H  0.45652745  0.59561985  0.92204966     0.19380
H720        H  0.46432951  0.48465868  0.94285993     0.19750
C721        C  0.52364704  0.52412903  0.95767629    -0.06450
C722        C  0.52417506  0.51761246  0.90342022    -0.17570
C723        C  0.54169066  0.52947626  0.87031481     0.10750
C724        C  0.55977822  0.54769681  0.89187509    -0.06370
C725        C  0.56044552  0.55223943  0.94655499    -0.17610
C726        C  0.54271628  0.54080956  0.97976567     0.10780
S727        S  0.53855199  0.52274840  0.80060694    -0.32570
S728        S  0.54549420  0.55004428  0.04864239    -0.32580
H729        H  0.52136313  0.54926061  0.05959471     0.28790
H730        H  0.54348918  0.55286164  0.78572579     0.28790
H731        H  0.50994676  0.50447272  0.88606715     0.19380
H732        H  0.57453354  0.56584985  0.96337828     0.19390
C733        C  0.52105504  0.97585429  0.95691205    -0.06450
C734        C  0.53880129  0.99427817  0.93452069    -0.17570
C735        C  0.55825956  0.98160027  0.90783947     0.10750
C736        C  0.55946398  0.94973836  0.90043557    -0.06370
C737        C  0.54215792  0.93153814  0.92466597    -0.17610
C738        C  0.52365010  0.94400139  0.95378865     0.10780
S739        S  0.58120134  0.00730777  0.88658234    -0.32570
S740        S  0.50433612  0.91754386  0.98692181    -0.32580
H741        H  0.50158532  0.93568973  0.03187369     0.28790
H742        H  0.59985690  0.98700858  0.89675013     0.28790
H743        H  0.53741315  0.01872172  0.93739554     0.19380
H744        H  0.54273296  0.90712175  0.92068663     0.19390
C745        C  0.47623646  0.97987702  0.95303272    -0.06450
C746        C  0.45961321  0.96257435  0.98156150    -0.17570
C747        C  0.44042359  0.94868145  0.95627385     0.10750
C748        C  0.43755707  0.95224822  0.90126677    -0.06370
C749        C  0.45303622  0.97139860  0.87357308    -0.17610
C750        C  0.47217621  0.98529394  0.89874117     0.10780
S751        S  0.42035591  0.92654995  0.99624794    -0.32570
S752        S  0.49084316  0.00944731  0.85898342    -0.32580
H753        H  0.49657205  0.02941469  0.89999784     0.28790
H754        H  0.40016690  0.93227180  0.96540249     0.28790
H755        H  0.46214401  0.95878315  0.02336473     0.19380
H756        H  0.45069154  0.97474580  0.83156383     0.19390
C757        C  0.52116673  0.02373157  0.04131080    -0.06450
C758        C  0.53914999  0.00543414  0.06272235    -0.17570
C759        C  0.55861788  0.01821015  0.08912031     0.10750
C760        C  0.55962446  0.05002206  0.09727897    -0.06370
C761        C  0.54208239  0.06813754  0.07403826    -0.17610
C762        C  0.52353195  0.05560559  0.04519328     0.10780
S763        S  0.58181877  0.99269584  0.10909629    -0.32570
S764        S  0.50381599  0.08200977  0.01349791    -0.32580
H765        H  0.50083212  0.06413547  0.96829450     0.28790
H766        H  0.60029292  0.01334784  0.09882260     0.28790
H767        H  0.53792102  0.98099356  0.05942037     0.19380
H768        H  0.54250508  0.09252728  0.07862416     0.19390
C769        C  0.47637754  0.01918890  0.04654027    -0.06450
C770        C  0.45939228  0.03597273  0.01842146    -0.17570
C771        C  0.44027319  0.04969713  0.04431553     0.10750
C772        C  0.43797188  0.04668736  0.09959770    -0.06370
C773        C  0.45380093  0.02797426  0.12692771    -0.17610
C774        C  0.47277728  0.01410661  0.10112093     0.10780
S775        S  0.41954904  0.07082245  0.00470094    -0.32570
S776        S  0.49189300  0.99054386  0.14055651    -0.32580
H777        H  0.49743602  0.97034852  0.09974041     0.28790
H778        H  0.39977530  0.06504053  0.03707976     0.28790
H779        H  0.46158305  0.03952386  0.97643277     0.19380
H780        H  0.45192075  0.02502309  0.16916063     0.19390
loop_ 
_geom_bond_atom_site_label_1 
_geom_bond_atom_site_label_2 
_geom_bond_distance 
_geom_bond_site_symmetry_2 
_ccdc_geom_bond_type 
C1            C2   1.371   1_544  D
C1          C757   1.502       .  S
C1          C769   1.498       .  S
C2          C733   1.500       .  S
C2          C745   1.499       .  S
C3            C4   1.370   1_556  D
C3          C712   1.505       .  S
C3          C721   1.497       .  S
C4          C688   1.491       .  S
C4          C697   1.502       .  S
N5            N6   1.322       .  A
N5            C9   1.344       .  A
N5          Cu13   2.069       .  S
N6            C7   1.345       .  A
N6          Cu12   2.068       .  S
C7            C8   1.380       .  A
C7           H10   1.082       .  S
C8            C9   1.381       .  A
C8          C676   1.468       .  S
C9           H11   1.082       .  S
Cu12         N15   2.069       .  S
Cu13         N23   2.069       .  S
Cu14         N16   2.082       .  S
Cu14         N22   2.083       .  S
N15          N16   1.323       .  A
N15          C19   1.343       .  A
N16          C17   1.347       .  A
C17          C18   1.385       .  A
C17          H20   1.082       .  S
C18          C19   1.381       .  A
C18          C42   1.472       .  S
C19          H21   1.082       .  S
N22          N23   1.323       .  A
N22          C26   1.346       .  A
N23          C24   1.345       .  A
C24          C25   1.381       .  A
C24          H27   1.082       .  S
C25          C26   1.385       .  A
C25         C664   1.476       .  S
C26          H28   1.082       .  S
N29          N30   1.323       .  A
N29          C33   1.345       .  A
N29         Cu37   2.079       .  S
N30          C31   1.345       .  A
N30         Cu36   2.071       .  S
C31          C32   1.380       .  A
C31          H34   1.082       .  S
C32          C33   1.383       .  A
C32         C652   1.472       .  S
C33          H35   1.082       .  S
Cu36         N39   2.071       .  S
Cu37         N47   2.079       .  S
Cu38         N40   2.073       .  S
Cu38         N46   2.073       .  S
N39          N40   1.321       .  A
N39          C43   1.344       .  A
N40          C41   1.347       .  A
C41          C42   1.384       .  A
C41          H44   1.082       .  S
C42          C43   1.383       .  A
C43          H45   1.082       .  S
N46          N47   1.321       .  A
N46          C50   1.342       .  A
N47          C48   1.348       .  A
C48          C49   1.389       .  A
C48          H51   1.082       .  S
C49          C50   1.386       .  A
C49         C640   1.489       .  S
C50          H52   1.081       .  S
N53          N54   1.322       .  A
N53          C57   1.344       .  A
N53         Cu61   2.074       .  S
N54          C55   1.345       .  A
N54         Cu60   2.061       .  S
C55          C56   1.379       .  A
C55          H58   1.082       .  S
C56          C57   1.383       .  A
C56         C625   1.471       .  S
C57          H59   1.082       .  S
Cu60         N63   2.062       .  S
Cu61         N71   2.075       .  S
Cu62         N64   2.079       .  S
Cu62         N70   2.079       .  S
N63          N64   1.322       .  A
N63          C67   1.342       .  A
N64          C65   1.347       .  A
C65          C66   1.385       .  A
C65          H68   1.082       .  S
C66          C67   1.380       .  A
C66          C90   1.469       .  S
C67          H69   1.082       .  S
N70          N71   1.323       .  A
N70          C74   1.345       .  A
N71          C72   1.345       .  A
C72          C73   1.383       .  A
C72          H75   1.082       .  S
C73          C74   1.384       .  A
C73         C748   1.477       .  S
C74          H76   1.082       .  S
N77          N78   1.323       .  A
N77          C81   1.345       .  A
N77         Cu85   2.083       .  S
N78          C79   1.344       .  A
N78         Cu84   2.065       .  S
C79          C80   1.379       .  A
C79          H82   1.082       .  S
C80          C81   1.384       .  A
C80         C616   1.473       .  S
C81          H83   1.082       .  S
Cu84         N87   2.065       .  S
Cu85         N95   2.082       .  S
Cu86         N88   2.068       .  S
Cu86         N94   2.068       .  S
N87          N88   1.320       .  A
N87          C91   1.343       .  A
N88          C89   1.346       .  A
C89          C90   1.383       .  A
C89          H92   1.082       .  S
C90          C91   1.383       .  A
C91          H93   1.082       .  S
N94          N95   1.320       .  A
N94          C98   1.340       .  A
N95          C96   1.348       .  A
C96          C97   1.393       .  A
C96          H99   1.080       .  S
C97          C98   1.389       .  A
C97         C709   1.496       .  S
C98         H100   1.080       .  S
N101        N102   1.320       .  A
N101        C105   1.343       .  A
N101       Cu109   2.074       .  S
N102        C103   1.343       .  A
N102       Cu108   2.070       .  S
C103        C104   1.390       .  A
C103        H106   1.078       .  S
C104        C105   1.391       .  A
C104        C604   1.495       .  S
C105        H107   1.081       .  S
Cu108       N111   2.070       .  S
Cu109       N119   2.075       .  S
Cu110       N112   2.070       .  S
Cu110       N118   2.070       .  S
N111        N112   1.321       .  A
N111        C115   1.344       .  A
N112        C113   1.345       .  A
C113        C114   1.383       .  A
C113        H116   1.081       .  S
C114        C115   1.383       .  A
C114        C138   1.470       .  S
C115        H117   1.082       .  S
N118        N119   1.322       .  A
N118        C122   1.342       .  A
N119        C120   1.347       .  A
C120        C121   1.386       .  A
C120        H123   1.081       .  S
C121        C122   1.383       .  A
C121        C589   1.479       .  S
C122        H124   1.082       .  S
N125        N126   1.320       .  A
N125        C129   1.342       .  A
N125       Cu133   2.073       .  S
N126        C127   1.344       .  A
N126       Cu132   2.070       .  S
C127        C128   1.390       .  A
C127        H130   1.079       .  S
C128        C129   1.390       .  A
C128        C577   1.494       .  S
C129        H131   1.082       .  S
Cu132       N135   2.071       .  S
Cu133       N143   2.073       .  S
Cu134       N136   2.073       .  S
Cu134       N142   2.073       .  S
N135        N136   1.322       .  A
N135        C139   1.344       .  A
N136        C137   1.345       .  A
C137        C138   1.383       .  A
C137        H140   1.082       .  S
C138        C139   1.382       .  A
C139        H141   1.082       .  S
N142        N143   1.320       .  A
N142        C146   1.343       .  A
N143        C144   1.345       .  A
C144        C145   1.389       .  A
C144        H147   1.082       .  S
C145        C146   1.389       .  A
C145        C568   1.490       .  S
C146        H148   1.080       .  S
C149        C553   1.576       .  S
C149        C580   1.578       .  S
C149        C613   1.584       .  S
C149        C649   1.584       .  S
N150        N151   1.319       .  A
N150        C154   1.342       .  A
N150       Cu158   2.073       .  S
N151        C152   1.344       .  A
N151       Cu157   2.058       .  S
C152        C153   1.386       .  A
C152        H155   1.081       .  S
C153        C154   1.390       .  A
C153        C541   1.487       .  S
C154        H156   1.082       .  S
Cu157       N160   2.059       .  S
Cu158       N168   2.073       .  S
Cu159       N161   2.075       .  S
Cu159       N167   2.075       .  S
N160        N161   1.322       .  A
N160        C164   1.341       .  A
N161        C162   1.347       .  A
C162        C163   1.384       .  A
C162        H165   1.082       .  S
C163        C164   1.380       .  A
C163        C187   1.467       .  S
C164        H166   1.082       .  S
N167        N168   1.322       .  A
N167        C171   1.345       .  A
N168        C169   1.345       .  A
C169        C170   1.384       .  A
C169        H172   1.082       .  S
C170        C171   1.384       .  A
C170        C772   1.477       .  S
C171        H173   1.082       .  S
N174        N175   1.319       .  A
N174        C178   1.341       .  A
N174       Cu182   2.065       .  S
N175        C176   1.344       .  A
N175       Cu181   2.063       .  S
C176        C177   1.389       .  A
C176        H179   1.080       .  S
C177        C178   1.389       .  A
C177        C556   1.490       .  S
C178        H180   1.082       .  S
Cu181       N184   2.064       .  S
Cu182       N192   2.065       .  S
Cu183       N185   2.073       .  S
Cu183       N191   2.073       .  S
N184        N185   1.322       .  A
N184        C188   1.341       .  A
N185        C186   1.346       .  A
C186        C187   1.383       .  A
C186        H189   1.082       .  S
C187        C188   1.380       .  A
C188        H190   1.082       .  S
N191        N192   1.319       .  A
N191        C195   1.341       .  A
N192        C193   1.344       .  A
C193        C194   1.390       .  A
C193        H196   1.078       .  S
C194        C195   1.392       .  A
C194        C685   1.496       .  S
C195        H197   1.081       .  S
C198        C544   1.577       .  S
C198        C601   1.578   1_545  S
C198        C628   1.579   1_545  S
C198        C673   1.584       .  S
C199        C200   1.373   1_556  D
C199        C520   1.499       .  S
C199        C637   1.503   1_655  S
C200        C529   1.504       .  S
C200        C565   1.497   1_655  S
C201        C202   1.382   1_546  D
C201        C493   1.525   1_455  S
C201        C661   1.497       .  S
C202        C505   1.505   1_455  S
C202        C592   1.497       .  S
N203        N204   1.321       .  A
N203        C207   1.341       .  A
N203       Cu211   2.065       .  S
N204        C205   1.345       .  A
N204       Cu210   2.065       .  S
C205        C206   1.385       .  A
C205        H208   1.081       .  S
C206        C207   1.384       .  A
C206        C481   1.479       .  S
C207        H209   1.082       .  S
Cu210       N213   2.065       .  S
Cu211       N221   2.065       .  S
Cu212       N214   2.089       .  S
Cu212       N220   2.090       .  S
N213        N214   1.322       .  A
N213        C217   1.344       .  A
N214        C215   1.348       .  A
C215        C216   1.387       .  A
C215        H218   1.082       .  S
C216        C217   1.381       .  A
C216        C240   1.474       .  S
C217        H219   1.081       .  S
N220        N221   1.321       .  A
N220        C224   1.343       .  A
N221        C222   1.347       .  A
C222        C223   1.385       .  A
C222        H225   1.082       .  S
C223        C224   1.391       .  A
C223        C496   1.488       .  S
C224        H226   1.082       .  S
N227        N228   1.323       .  A
N227        C231   1.345       .  A
N227       Cu235   2.075       .  S
N228        C229   1.347       .  A
N228       Cu234   2.081       .  S
C229        C230   1.383       .  A
C229        H232   1.082       .  S
C230        C231   1.383       .  A
C230        C472   1.477       .  S
C231        H233   1.082       .  S
Cu234       N237   2.081       .  S
Cu235       N245   2.075       .  S
Cu236       N238   2.070       .  S
Cu236       N244   2.070       .  S
N237        N238   1.322       .  A
N237        C241   1.346       .  A
N238        C239   1.346       .  A
C239        C240   1.383       .  A
C239        H242   1.082       .  S
C240        C241   1.385       .  A
C241        H243   1.082       .  S
N244        N245   1.321       .  A
N244        C248   1.342       .  A
N245        C246   1.346       .  A
C246        C247   1.389       .  A
C246        H249   1.082       .  S
C247        C248   1.387       .  A
C247        C517   1.488       .  S
C248        H250   1.081       .  S
N251        N252   1.323       .  A
N251        C255   1.345       .  A
N251       Cu259   2.084       .  S
N252        C253   1.344       .  A
N252       Cu258   2.065       .  S
C253        C254   1.382       .  A
C253        H256   1.082       .  S
C254        C255   1.387       .  A
C254        C460   1.481       .  S
C255        H257   1.082       .  S
Cu258       N261   2.065       .  S
Cu259       N269   2.083       .  S
Cu260       N262   2.081       .  S
Cu260       N268   2.081       .  S
N261        N262   1.321       .  A
N261        C265   1.344       .  A
N262        C263   1.347       .  A
C263        C264   1.386       .  A
C263        H266   1.081       .  S
C264        C265   1.382       .  A
C264        C288   1.473       .  S
C265        H267   1.081       .  S
N268        N269   1.322       .  A
N268        C272   1.342       .  A
N269        C270   1.350       .  A
C270        C271   1.390       .  A
C270        H273   1.082       .  S
C271        C272   1.388       .  A
C271        C508   1.494       .  S
C272        H274   1.080       .  S
N275        N276   1.323       .  A
N275        C279   1.345       .  A
N275       Cu283   2.078       .  S
N276        C277   1.347       .  A
N276       Cu282   2.079       .  S
C277        C278   1.384       .  A
C277        H280   1.082       .  S
C278        C279   1.384       .  A
C278        C445   1.479       .  S
C279        H281   1.082       .  S
Cu282       N285   2.079       .  S
Cu283       N293   2.078       .  S
Cu284       N286   2.074       .  S
Cu284       N292   2.074       .  S
N285        N286   1.323       .  A
N285        C289   1.345       .  A
N286        C287   1.346       .  A
C287        C288   1.383       .  A
C287        H290   1.082       .  S
C288        C289   1.384       .  A
C289        H291   1.082       .  S
N292        N293   1.321       .  A
N292        C296   1.345       .  A
N293        C294   1.345       .  A
C294        C295   1.388       .  A
C294        H297   1.082       .  S
C295        C296   1.387       .  A
C295        C532   1.487       .  S
C296        H298   1.081       .  S
N299        N300   1.320       .  A
N299        C303   1.343       .  A
N299       Cu307   2.080       .  S
N300        C301   1.342       .  A
N300       Cu306   2.058       .  S
C301        C302   1.385       .  A
C301        H304   1.081       .  S
C302        C303   1.390       .  A
C302        C436   1.487       .  S
C303        H305   1.082       .  S
Cu306       N309   2.058       .  S
Cu307       N317   2.080       .  S
Cu308       N310   2.079       .  S
Cu308       N316   2.080       .  S
N309        N310   1.321       .  A
N309        C313   1.343       .  A
N310        C311   1.347       .  A
C311        C312   1.386       .  A
C311        H314   1.081       .  S
C312        C313   1.381       .  A
C312        C336   1.470       .  S
C313        H315   1.081       .  S
N316        N317   1.321       .  A
N316        C320   1.342       .  A
N317        C318   1.348       .  A
C318        C319   1.390       .  A
C318        H321   1.081       .  S
C319        C320   1.390       .  A
C319        C760   1.493       .  S
C320        H322   1.081       .  S
N323        N324   1.320       .  A
N323        C327   1.343       .  A
N323       Cu331   2.074       .  S
N324        C325   1.346       .  A
N324       Cu330   2.076       .  S
C325        C326   1.390       .  A
C325        H328   1.081       .  S
C326        C327   1.389       .  A
C326        C421   1.493       .  S
C327        H329   1.080       .  S
Cu330       N333   2.077       .  S
Cu331       N341   2.074       .  S
Cu332       N334   2.071       .  S
Cu332       N340   2.071       .  S
N333        N334   1.323       .  A
N333        C337   1.344       .  A
N334        C335   1.345       .  A
C335        C336   1.382       .  A
C335        H338   1.081       .  S
C336        C337   1.383       .  A
C337        H339   1.081       .  S
N340        N341   1.322       .  A
N340        C344   1.345       .  A
N341        C342   1.345       .  A
C342        C343   1.383       .  A
C342        H345   1.082       .  S
C343        C344   1.382       .  A
C343        C700   1.473       .  S
C344        H346   1.082       .  S
N347        N348   1.320       .  A
N347        C351   1.343       .  A
N347       Cu355   2.080       .  S
N348        C349   1.342       .  A
N348       Cu354   2.058       .  S
C349        C350   1.385       .  A
C349        H352   1.081       .  S
C350        C351   1.390       .  A
C350        C409   1.487       .  S
C351        H353   1.082       .  S
Cu354       N357   2.058       .  S
Cu355       N365   2.079       .  S
Cu356       N358   2.079       .  S
Cu356       N364   2.080       .  S
N357        N358   1.321       .  A
N357        C361   1.342       .  A
N358        C359   1.347       .  A
C359        C360   1.386       .  A
C359        H362   1.082       .  S
C360        C361   1.381       .  A
C360        C384   1.470       .  S
C361        H363   1.082       .  S
N364        N365   1.321       .  A
N364        C368   1.342       .  A
N365        C366   1.348       .  A
C366        C367   1.390       .  A
C366        H369   1.081       .  S
C367        C368   1.389       .  A
C367        C736   1.493       .  S
C368        H370   1.081       .  S
N371        N372   1.320       .  A
N371        C375   1.342       .  A
N371       Cu379   2.071       .  S
N372        C373   1.345       .  A
N372       Cu378   2.073       .  S
C373        C374   1.391       .  A
C373        H376   1.080       .  S
C374        C375   1.390       .  A
C374        C397   1.495       .  S
C375        H377   1.081       .  S
Cu378       N381   2.073       .  S
Cu379       N389   2.071       .  S
Cu380       N382   2.069       .  S
Cu380       N388   2.070       .  S
N381        N382   1.322       .  A
N381        C385   1.343       .  A
N382        C383   1.346       .  A
C383        C384   1.383       .  A
C383        H386   1.082       .  S
C384        C385   1.383       .  A
C385        H387   1.082       .  S
N388        N389   1.322       .  A
N388        C392   1.342       .  A
N389        C390   1.346       .  A
C390        C391   1.384       .  A
C390        H393   1.082       .  S
C391        C392   1.382       .  A
C391        C724   1.476       .  S
C392        H394   1.082       .  S
C395        C400   1.589       .  S
C395        C424   1.586       .  S
C395        C448   1.581       .  S
C395        C469   1.574       .  S
C396        C412   1.568       .  S
C396        C433   1.567   1_565  S
C396        C457   1.574       .  S
C396        C484   1.571   1_565  S
C397        C398   1.400       .  A
C397        C402   1.411       .  A
C398        C399   1.399       .  A
C398        H407   1.080       .  S
C399        C400   1.433       .  A
C399        S403   1.807       .  S
C400        C401   1.424       .  A
C401        C402   1.405       .  A
C401        H408   1.075       .  S
C402        S404   1.809       .  S
S403        H406   1.407       .  S
S404        H405   1.407       .  S
C409        C410   1.396       .  A
C409        C414   1.411       .  A
C410        C411   1.399       .  A
C410        H419   1.080       .  S
C411        C412   1.438       .  A
C411        S415   1.813   1_565  S
C412        C413   1.416       .  A
C413        C414   1.400       .  A
C413        H420   1.077       .  S
C414        S416   1.803       .  S
S415        H418   1.406       .  S
S416        H417   1.407       .  S
C421        C422   1.402       .  A
C421        C426   1.407       .  A
C422        C423   1.406       .  A
C422        H431   1.083       .  S
C423        C424   1.443       .  A
C423        S427   1.807       .  S
C424        C425   1.424       .  A
C425        C426   1.393       .  A
C425        H432   1.082       .  S
C426        S428   1.803       .  S
S427        H430   1.397       .  S
S428        H429   1.407       .  S
C433        C434   1.416       .  A
C433        C438   1.435       .  A
C434        C435   1.399       .  A
C434        H443   1.077       .  S
C435        C436   1.411       .  A
C435        S439   1.803       .  S
C436        C437   1.397       .  A
C437        C438   1.398       .  A
C437        H444   1.081       .  S
C438        S440   1.810   1_545  S
S439        H442   1.407       .  S
S440        H441   1.407       .  S
C445        C446   1.395       .  A
C445        C450   1.404       .  A
C446        C447   1.402       .  A
C446        H455   1.085       .  S
C447        C448   1.442       .  A
C447        S451   1.810       .  S
C448        C449   1.423       .  A
C449        C450   1.397       .  A
C449        H456   1.076       .  S
C450        S452   1.804       .  S
S451        H454   1.393       .  S
S452        H453   1.407       .  S
C457        C458   1.417       .  A
C457        C462   1.443       .  A
C458        C459   1.397       .  A
C458        H467   1.074       .  S
C459        C460   1.406       .  A
C459        S463   1.803       .  S
C460        C461   1.395       .  A
C461        C462   1.403       .  A
C461        H468   1.082       .  S
C462        S464   1.815   1_565  S
S463        H466   1.407       .  S
S464        H465   1.407       .  S
C469        C470   1.422       .  A
C469        C474   1.443       .  A
C470        C471   1.395       .  A
C470        H479   1.074       .  S
C471        C472   1.403       .  A
C471        S475   1.804       .  S
C472        C473   1.395       .  A
C473        C474   1.404       .  A
C473        H480   1.085       .  S
C474        S476   1.809       .  S
S475        H478   1.406       .  S
S476        H477   1.395       .  S
C481        C482   1.395       .  A
C481        C486   1.405       .  A
C482        C483   1.400       .  A
C482        H491   1.082       .  S
C483        C484   1.442       .  A
C483        S487   1.815   1_545  S
C484        C485   1.417       .  A
C485        C486   1.397       .  A
C485        H492   1.074       .  S
C486        S488   1.803       .  S
S487        H490   1.407       .  S
S488        H489   1.407       .  S
C493        C494   1.415       .  A
C493        C498   1.432       .  A
C494        C495   1.408       .  A
C494        H503   1.080   1_545  S
C495        C496   1.413       .  A
C495        S499   1.802   1_545  S
C496        C497   1.394       .  A
C497        C498   1.394       .  A
C497        H504   1.082       .  S
C498        S500   1.806   1_655  S
S499        H502   1.407   1_565  S
S500        H501   1.409   1_455  S
C505        C506   1.406       .  A
C505        C510   1.419       .  A
C506        C507   1.391       .  A
C506        H515   1.080       .  S
C507        C508   1.414       .  A
C507        S511   1.804       .  S
C508        C509   1.410       .  A
C509        C510   1.410       .  A
C509        H516   1.083       .  S
C510        S512   1.804   1_565  S
S511        H514   1.408       .  S
S512        H513   1.404       .  S
C517        C518   1.404       .  A
C517        C522   1.414       .  A
C518        C519   1.404       .  A
C518        H527   1.081       .  S
C519        C520   1.415       .  A
C519        S523   1.800       .  S
C520        C521   1.404       .  A
C521        C522   1.397       .  A
C521        H528   1.079   1_556  S
C522        S524   1.803       .  S
S523        H526   1.407       .  S
S524        H525   1.407       .  S
C529        C530   1.406       .  A
C529        C534   1.418       .  A
C530        C531   1.401       .  A
C530        H539   1.079   1_554  S
C531        C532   1.414       .  A
C531        S535   1.802       .  S
C532        C533   1.401       .  A
C533        C534   1.399       .  A
C533        H540   1.083       .  S
C534        S536   1.791       .  S
S535        H538   1.407       .  S
S536        H537   1.393       .  S
C541        C542   1.397       .  A
C541        C546   1.411       .  A
C542        C543   1.397       .  A
C542        H551   1.081       .  S
C543        C544   1.437       .  A
C543        S547   1.813   1_545  S
C544        C545   1.419       .  A
C545        C546   1.399       .  A
C545        H552   1.077       .  S
C546        S548   1.802       .  S
S547        H550   1.407       .  S
S548        H549   1.407       .  S
C553        C554   1.418       .  A
C553        C558   1.441       .  A
C554        C555   1.398       .  A
C554        H563   1.076       .  S
C555        C556   1.411       .  A
C555        S559   1.802       .  S
C556        C557   1.399       .  A
C557        C558   1.395       .  A
C557        H564   1.082       .  S
C558        S560   1.814       .  S
S559        H562   1.407       .  S
S560        H561   1.395       .  S
C565        C566   1.404       .  A
C565        C570   1.418       .  A
C566        C567   1.397       .  A
C566        H575   1.080       .  S
C567        C568   1.414       .  A
C567        S571   1.802       .  S
C568        C569   1.405       .  A
C569        C570   1.401       .  A
C569        H576   1.082       .  S
C570        S572   1.802       .  S
S571        H574   1.407       .  S
S572        H573   1.389       .  S
C577        C578   1.400       .  A
C577        C582   1.412       .  A
C578        C579   1.397       .  A
C578        H587   1.082       .  S
C579        C580   1.442       .  A
C579        S583   1.814       .  S
C580        C581   1.418       .  A
C581        C582   1.399       .  A
C581        H588   1.076       .  S
C582        S584   1.801       .  S
S583        H586   1.394       .  S
S584        H585   1.407       .  S
C589        C590   1.402       .  A
C589        C594   1.411       .  A
C590        C591   1.399       .  A
C590        H599   1.084       .  S
C591        C592   1.417       .  A
C591        S595   1.805   1_554  S
C592        C593   1.403       .  A
C593        C594   1.398       .  A
C593        H600   1.084   1_565  S
C594        S596   1.796       .  S
S595        H598   1.400       .  S
S596        H597   1.407   1_565  S
C601        C602   1.419       .  A
C601        C606   1.434       .  A
C602        C603   1.397       .  A
C602        H611   1.078       .  S
C603        C604   1.413       .  A
C603        S607   1.802       .  S
C604        C605   1.402       .  A
C605        C606   1.401       .  A
C605        H612   1.080       .  S
C606        S608   1.814   1_565  S
S607        H610   1.407       .  S
S608        H609   1.407       .  S
C613        C614   1.427       .  A
C613        C618   1.444       .  A
C614        C615   1.391       .  A
C614        H623   1.073       .  S
C615        C616   1.398       .  A
C615        S619   1.806       .  S
C616        C617   1.396       .  A
C617        C618   1.405       .  A
C617        H624   1.084       .  S
C618        S620   1.813       .  S
S619        H622   1.407       .  S
S620        H621   1.390       .  S
C625        C626   1.396       .  A
C625        C630   1.398       .  A
C626        C627   1.404       .  A
C626        H635   1.084       .  S
C627        C628   1.441       .  A
C627        S631   1.812       .  S
C628        C629   1.425       .  A
C629        C630   1.390       .  A
C629        H636   1.073       .  S
C630        S632   1.807       .  S
S631        H634   1.391       .  S
S632        H633   1.407       .  S
C637        C638   1.404       .  A
C637        C642   1.416       .  A
C638        C639   1.396       .  A
C638        H647   1.077   1_556  S
C639        C640   1.413       .  A
C639        S643   1.803       .  S
C640        C641   1.405       .  A
C641        C642   1.407       .  A
C641        H648   1.081       .  S
C642        S644   1.801       .  S
S643        H646   1.407       .  S
S644        H645   1.406       .  S
C649        C650   1.427       .  A
C649        C654   1.445       .  A
C650        C651   1.392       .  A
C650        H659   1.074       .  S
C651        C652   1.399       .  A
C651        S655   1.806       .  S
C652        C653   1.394       .  A
C653        C654   1.405       .  A
C653        H660   1.084       .  S
C654        S656   1.813       .  S
S655        H658   1.406       .  S
S656        H657   1.391       .  S
C661        C662   1.409       .  A
C661        C666   1.417       .  A
C662        C663   1.398       .  A
C662        H671   1.082   1_556  S
C663        C664   1.410       .  A
C663        S667   1.803   1_556  S
C664        C665   1.403       .  A
C665        C666   1.401       .  A
C665        H672   1.083       .  S
C666        S668   1.808   1_545  S
S667        H670   1.406   1_554  S
S668        H669   1.398   1_455  S
C673        C674   1.424       .  A
C673        C678   1.443       .  A
C674        C675   1.393       .  A
C674        H683   1.072       .  S
C675        C676   1.401       .  A
C675        S679   1.811       .  S
C676        C677   1.394       .  A
C677        C678   1.403       .  A
C677        H684   1.084       .  S
C678        S680   1.811       .  S
S679        H682   1.399       .  S
S680        H681   1.392       .  S
C685        C686   1.408       .  A
C685        C690   1.423       .  A
C686        C687   1.394       .  A
C686        H695   1.082       .  S
C687        C688   1.409       .  A
C687        S691   1.804   1_554  S
C688        C689   1.401       .  A
C689        C690   1.401       .  A
C689        H696   1.083       .  S
C690        S692   1.798       .  S
S691        H694   1.405       .  S
S692        H693   1.407       .  S
C697        C698   1.409       .  A
C697        C702   1.422       .  A
C698        C699   1.402       .  A
C698        H707   1.081   1_554  S
C699        C700   1.410       .  A
C699        S703   1.803   1_554  S
C700        C701   1.397       .  A
C701        C702   1.396       .  A
C701        H708   1.084       .  S
C702        S704   1.803       .  S
S703        H706   1.406   1_556  S
S704        H705   1.396       .  S
C709        C710   1.406       .  A
C709        C714   1.420       .  A
C710        C711   1.393       .  A
C710        H719   1.081       .  S
C711        C712   1.411       .  A
C711        S715   1.795       .  S
C712        C713   1.407       .  A
C713        C714   1.405       .  A
C713        H720   1.081       .  S
C714        S716   1.800       .  S
S715        H718   1.407   1_556  S
S716        H717   1.407       .  S
C721        C722   1.406       .  A
C721        C726   1.420       .  A
C722        C723   1.396       .  A
C722        H731   1.084       .  S
C723        C724   1.410       .  A
C723        S727   1.801       .  S
C724        C725   1.401       .  A
C725        C726   1.399       .  A
C725        H732   1.084       .  S
C726        S728   1.801   1_556  S
S727        H730   1.407       .  S
S728        H729   1.390       .  S
C733        C734   1.407       .  A
C733        C738   1.414       .  A
C734        C735   1.406       .  A
C734        H743   1.083   1_565  S
C735        C736   1.419       .  A
C735        S739   1.801   1_565  S
C736        C737   1.403       .  A
C737        C738   1.392       .  A
C737        H744   1.082       .  S
C738        S740   1.801       .  S
S739        H742   1.407   1_545  S
S740        H741   1.402   1_556  S
C745        C746   1.406       .  A
C745        C750   1.415       .  A
C746        C747   1.401       .  A
C746        H755   1.082   1_556  S
C747        C748   1.412       .  A
C747        S751   1.802       .  S
C748        C749   1.400       .  A
C749        C750   1.398       .  A
C749        H756   1.083       .  S
C750        S752   1.802   1_565  S
S751        H754   1.406       .  S
S752        H753   1.402       .  S
C757        C758   1.407       .  A
C757        C762   1.415       .  A
C758        C759   1.406       .  A
C758        H767   1.083   1_545  S
C759        C760   1.419       .  A
C759        S763   1.801   1_545  S
C760        C761   1.403       .  A
C761        C762   1.393       .  A
C761        H768   1.082       .  S
C762        S764   1.801       .  S
S763        H766   1.407   1_565  S
S764        H765   1.403   1_554  S
C769        C770   1.406       .  A
C769        C774   1.415       .  A
C770        C771   1.401       .  A
C770        H779   1.082   1_554  S
C771        C772   1.413       .  A
C771        S775   1.802       .  S
C772        C773   1.400       .  A
C773        C774   1.396       .  A
C773        H780   1.083       .  S
C774        S776   1.802   1_545  S
S775        H778   1.407       .  S
S776        H777   1.402       .  S
