geometry optimzed in LAMMPS
_audit_creation_date              2020-11-30 
_audit_creation_method            'lammps2cif' 
_symmetry_space_group_name_H-M    'P1' 
_symmetry_Int_Tables_number       1 
_symmetry_cell_setting            triclinic 
loop_ 
_symmetry_equiv_pos_as_xyz 
  x,y,z 
_cell_length_a                    35.68148838956471 
_cell_length_b                    34.38535518188714 
_cell_length_c                    31.40069952574747 
_cell_angle_alpha                 90.22710268280255 
_cell_angle_beta                  106.12464551766625 
_cell_angle_gamma                 89.21462307674247 
loop_ 
_atom_site_label 
_atom_site_type_symbol 
_atom_site_fract_x 
_atom_site_fract_y 
_atom_site_fract_z 
_atom_site_charge 
In1        In  0.29325642  0.46013128  0.37927391     1.36870
C2          C  0.30306289  0.53504721  0.37540614     0.77070
O3          O  0.23943244  0.47718332  0.39741238    -0.61370
O4          O  0.28857964  0.45539673  0.44864687    -0.52290
C5          C  0.26371280  0.39350474  0.34464003     0.69740
O6          O  0.25140406  0.42609187  0.32680025    -0.47140
C7          C  0.35726888  0.45728302  0.35317335     0.74440
O8          O  0.27745975  0.51736110  0.34530069    -0.59000
O9          O  0.35836533  0.45231129  0.39373838    -0.49090
O10         O  0.32118138  0.51448217  0.40820838    -0.55430
C11         C  0.25413356  0.46983884  0.43819963     0.84620
O12         O  0.29100188  0.39512678  0.38052045    -0.57330
O13         O  0.32321002  0.45881960  0.32693142    -0.60620
C14         C  0.48239522  0.45353289  0.27068070     0.00050
C15         C  0.00084735  0.41706634  0.27803620     0.00050
In16       In  0.11831041  0.24495104  0.18057803     1.36870
C17         C  0.17890316  0.26451408  0.24786974     0.77070
O18         O  0.15878201  0.25955012  0.13973758    -0.61370
O19         O  0.09929718  0.27655090  0.11692609    -0.52290
C20         C  0.07965981  0.17972279  0.14925835     0.69740
O21         O  0.11658433  0.18073427  0.16069534    -0.47140
C22         C  0.07693640  0.29970913  0.20518896     0.74440
O23         O  0.14980604  0.24730500  0.25418782    -0.59000
O24         O  0.08781109  0.30163947  0.17061669    -0.49090
O25         O  0.18030061  0.26278325  0.20835588    -0.55430
C26         C  0.13333656  0.28038409  0.11327049     0.84620
O27         O  0.06409140  0.20984936  0.15949353    -0.57330
O28         O  0.08558693  0.26844462  0.22689253    -0.60620
In29       In  0.19440804  0.49203590  0.03096717     1.36870
C30         C  0.18534562  0.42083060  0.05411247     0.77070
O31         O  0.15606283  0.50448000  0.07320775    -0.61370
O32         O  0.12989884  0.50707466  0.50319785    -0.52290
C33         C  0.22370536  0.55709184  0.07043038     0.69740
O34         O  0.23501480  0.52387532  0.08672582    -0.47140
C35         C  0.23275632  0.47837943  0.47108640     0.74440
O36         O  0.21175187  0.44200443  0.07812038    -0.59000
O37         O  0.19831129  0.49233912  0.46070738    -0.49090
O38         O  0.16609893  0.43530430  0.51762086    -0.55430
C39         C  0.12561271  0.51045822  0.04193189     0.84620
O40         O  0.20034819  0.55650273  0.03189892    -0.57330
O41         O  0.24771582  0.47267768  0.51199461    -0.60620
C42         C  0.49147932  0.54388187  0.11038523     0.00050
C43         C  0.46201379  0.57073295  0.09162094     0.00050
In44       In  0.35128879  0.71072989  0.23906806     1.36870
C45         C  0.28871129  0.68929390  0.17583470     0.77070
O46         O  0.38675936  0.70269765  0.19206100    -0.61370
O47         O  0.38596653  0.65664184  0.23700182    -0.52290
C48         C  0.39099803  0.77616882  0.26323227     0.69740
O49         O  0.36087222  0.77553914  0.23055377    -0.47140
C50         C  0.34017511  0.67462509  0.30843276     0.74440
O51         O  0.28597492  0.70081917  0.21311270    -0.59000
O52         O  0.36685672  0.66592578  0.29062930    -0.49090
O53         O  0.32044823  0.69760138  0.16863365    -0.55430
C54         C  0.39633994  0.66819336  0.20400508     0.84620
O55         O  0.39658553  0.74525743  0.28520848    -0.57330
O56         O  0.31962893  0.70412455  0.29173145    -0.60620
In57       In  0.18145146  0.98476955  0.27134336     1.36870
C58         C  0.16769663  0.05870577  0.28496632     0.77070
O59         O  0.23484027  0.00286129  0.25237252    -0.61370
O60         O  0.18649154  0.98277659  0.20084440    -0.52290
C61         C  0.22238334  0.92760244  0.31943556     0.69740
O62         O  0.22072123  0.96181206  0.33378047    -0.47140
C63         C  0.11590900  0.95871959  0.28551121     0.74440
O64         O  0.19557135  0.03991365  0.31078846    -0.59000
O65         O  0.12104849  0.95683976  0.24700804    -0.49090
O66         O  0.14803167  0.03951351  0.25217589    -0.55430
C67         C  0.22090915  0.99613533  0.21152633     0.84620
O68         O  0.20447538  0.92343481  0.27890726    -0.57330
O69         O  0.14325279  0.97442270  0.31440781    -0.60620
C70         C  0.47037421  0.89651695  0.36223147     0.00050
C71         C  0.49360978  0.92959396  0.37043127     0.00050
In72       In  0.35416149  0.75634499  0.48819281     1.36870
C73         C  0.30208914  0.80396100  0.43640703     0.77070
O74         O  0.31304442  0.76715380  0.02962127    -0.61370
O75         O  0.37059615  0.78822726  0.05173128    -0.52290
C76         C  0.37935664  0.68330642  0.00056090     0.69740
O77         O  0.34807518  0.69183351  0.47102497    -0.47140
C78         C  0.40534869  0.78364342  0.45115947     0.74440
O79         O  0.29413994  0.76818601  0.43928594    -0.59000
O80         O  0.40756597  0.78911600  0.49161099    -0.49090
O81         O  0.33595488  0.81275067  0.45812613    -0.55430
C82         C  0.33637662  0.78959504  0.05578631     0.84620
O83         O  0.39404705  0.71100553  0.02582892    -0.57330
O84         O  0.38056883  0.75883949  0.43175994    -0.60620
In85       In  0.28412062  0.01388847  0.12116096     1.36870
C86         C  0.29477155  0.93866262  0.11117183     0.77070
O87         O  0.31549818  0.01437792  0.07013847    -0.61370
O88         O  0.34786267  0.03004167  0.13585759    -0.52290
C89         C  0.25520654  0.08308525  0.09058193     0.69740
O90         O  0.24264919  0.05153832  0.07065817    -0.47140
C91         C  0.24347374  0.00333865  0.17927757     0.74440
O92         O  0.26946891  0.95846971  0.08249076    -0.59000
O93         O  0.27881955  0.01441457  0.19091867    -0.49090
O94         O  0.31277206  0.95740830  0.14548050    -0.55430
C95         C  0.34785983  0.02502864  0.09553503     0.84620
O96         O  0.28191245  0.07904296  0.12660644    -0.57330
O97         O  0.22896105  0.99870271  0.13793922    -0.60620
C98         C  0.50666847  0.06012226  0.02648756     0.00050
C99         C  0.48045490  0.02939211  0.01902221     0.00050
In100      In  0.10940105  0.22898236  0.41990633     1.36870
C101        C  0.16982069  0.20850758  0.48844742     0.77070
O102        O  0.08384852  0.19789996  0.46684183    -0.61370
O103        O  0.07205611  0.17658641  0.40069218    -0.52290
C104        C  0.07153326  0.29796303  0.39945813     0.69740
O105        O  0.10811661  0.29428127  0.40737271    -0.47140
C106        C  0.12685259  0.20101470  0.34925620     0.74440
O107        O  0.14180693  0.22930905  0.49333003    -0.59000
O108        O  0.09350103  0.19925977  0.35546216    -0.49090
O109        O  0.16969841  0.20431811  0.44860449    -0.55430
C110        C  0.06953076  0.17155225  0.43942327     0.84620
O111        O  0.05558515  0.26705895  0.40554235    -0.57330
O112        O  0.15049352  0.22196546  0.37715313    -0.60620
C113        C  0.08079208  0.10943233  0.47960118    -0.02360
C114        C  0.05458969  0.13592809  0.45301256     0.07320
C115        C  0.01528650  0.12663802  0.43810032    -0.02470
C116        C  0.00273050  0.09206237  0.95278367    -0.02470
C117        C  0.02609913  0.07328742  0.99160731     0.07460
C118        C  0.06684084  0.08104656  0.00300490    -0.02670
Br119      Br  0.10541482  0.05549056  0.04968718    -0.01220
Br120      Br  0.13471707  0.10936224  0.47927594    -0.01290
Br121      Br  0.46701911  0.06393814  0.90700250    -0.01250
Br122      Br  0.97939760  0.15941100  0.39554568    -0.01230
C123        C  0.25601094  0.14432154  0.04687051    -0.02360
C124        C  0.23874986  0.12175553  0.07340042     0.07320
C125        C  0.20421439  0.13533686  0.08167979    -0.02470
C126        C  0.18357701  0.16742421  0.05794357    -0.02470
C127        C  0.19725878  0.18558697  0.02466352     0.07460
C128        C  0.23492809  0.17538661  0.02145746    -0.02670
Br129      Br  0.25773983  0.20373818  0.48222097    -0.01220
Br130      Br  0.30913975  0.13402903  0.04741642    -0.01290
Br131      Br  0.13436799  0.18219738  0.06775410    -0.01250
Br132      Br  0.18569468  0.10926652  0.12577531    -0.01230
C133        C  0.42010228  0.01713289  0.10240006    -0.02360
C134        C  0.38258678  0.03019606  0.07816363     0.07320
C135        C  0.37764400  0.04345719  0.03426909    -0.02470
C136        C  0.41029551  0.04770439  0.01765195    -0.02470
C137        C  0.44686584  0.03037285  0.04001524     0.07460
C138        C  0.44950187  0.01151330  0.08066137    -0.02670
Br139      Br  0.48450938  0.96801556  0.09909851    -0.01220
Br140      Br  0.43197490  0.00575113  0.16471704    -0.01290
Br141      Br  0.40091714  0.07042049  0.95974751    -0.01250
Br142      Br  0.32617949  0.05250454  0.99397422    -0.01230
C143        C  0.35275213  0.84505334  0.10895273    -0.02360
C144        C  0.32391290  0.82052517  0.08281398     0.07320
C145        C  0.28419901  0.83259104  0.07366130    -0.02470
C146        C  0.27451893  0.87041573  0.08541883    -0.02470
C147        C  0.30418390  0.89706959  0.10447507     0.07460
C148        C  0.34338159  0.88380041  0.11664307    -0.02670
Br149      Br  0.38560733  0.91907613  0.13903621    -0.01220
Br150      Br  0.40557536  0.82603652  0.13477000    -0.01290
Br151      Br  0.22046457  0.88568522  0.07529384    -0.01250
Br152      Br  0.24224778  0.79874803  0.04410865    -0.01230
C153        C  0.44980142  0.98244749  0.45332650    -0.02360
C154        C  0.48268725  0.99758501  0.48515547     0.07320
C155        C  0.01928514  0.98699830  0.47951509    -0.02470
C156        C  0.02320909  0.97345152  0.43870289    -0.02470
C157        C  0.49035384  0.95893674  0.40623860     0.07460
C158        C  0.45353203  0.96786643  0.41270554    -0.02670
Br159      Br  0.41066205  0.97917093  0.36211137    -0.01220
Br160      Br  0.40246839  0.96868113  0.46717084    -0.01290
Br161      Br  0.07163620  0.98626312  0.42689346    -0.01250
Br162      Br  0.06030730  0.97270714  0.03082562    -0.01230
C163        C  0.39987299  0.82955774  0.38934429    -0.02360
C164        C  0.42366034  0.81089373  0.42727596     0.07320
C165        C  0.45951975  0.82726625  0.44958988    -0.02470
C166        C  0.47162921  0.86203008  0.43427307    -0.02470
C167        C  0.44938851  0.87968499  0.39413579     0.07460
C168        C  0.41100775  0.86535341  0.37586131    -0.02670
Br169      Br  0.37024473  0.89606209  0.33703867    -0.01220
Br170      Br  0.35118777  0.80717904  0.35494064    -0.01290
Br171      Br  0.51535734  0.88664356  0.47370266    -0.01250
Br172      Br  0.49326780  0.80034637  0.50021815    -0.01230
C173        C  0.28557613  0.87411524  0.41998530    -0.02360
C174        C  0.27635278  0.83462282  0.40935549     0.07320
C175        C  0.24710038  0.82594928  0.37014746    -0.02470
C176        C  0.23020010  0.85584722  0.33981748    -0.02470
C177        C  0.24215122  0.89504658  0.34883222     0.07460
C178        C  0.27065897  0.90359174  0.38892166    -0.02670
Br179      Br  0.29289278  0.95497157  0.40097593    -0.01220
Br180      Br  0.31632174  0.88937235  0.47882396    -0.01290
Br181      Br  0.19065945  0.84175069  0.28627029    -0.01250
Br182      Br  0.22851173  0.77361395  0.35843525    -0.01230
C183        C  0.06067499  0.91442288  0.35884021    -0.02360
C184        C  0.02426488  0.93483061  0.34561916     0.07320
C185        C  0.01839752  0.96119154  0.30966530    -0.02470
C186        C  0.04520245  0.96255569  0.28389989    -0.02470
C187        C  0.08169438  0.94378365  0.29850511     0.07460
C188        C  0.08881073  0.91898848  0.33545467    -0.02670
Br189      Br  0.13867241  0.89233307  0.35551157    -0.01220
Br190      Br  0.07856707  0.88927548  0.41568056    -0.01290
Br191      Br  0.03207841  0.98988535  0.22842663    -0.01250
Br192      Br  0.98042923  0.00267256  0.30234448    -0.01230
C193        C  0.10896715  0.15005145  0.29180656    -0.02360
C194        C  0.13805886  0.17459182  0.31714830     0.07320
C195        C  0.17762785  0.16450246  0.32205798    -0.02470
C196        C  0.18737346  0.12733805  0.30866483    -0.02470
C197        C  0.15786978  0.09964439  0.29288934     0.07460
C198        C  0.11844672  0.11150525  0.28433222    -0.02670
Br199      Br  0.07677116  0.07462047  0.26925232    -0.01220
Br200      Br  0.05574877  0.16852104  0.26834444    -0.01290
Br201      Br  0.24101389  0.11435876  0.31255771    -0.01250
Br202      Br  0.21867608  0.20069289  0.34725593    -0.01230
C203        C  0.40807311  0.84799708  0.26383129    -0.02360
C204        C  0.41876380  0.80910928  0.27579461     0.07320
C205        C  0.45694302  0.80149227  0.30282176    -0.02470
C206        C  0.47885260  0.83167166  0.32770910    -0.02470
C207        C  0.46535467  0.87079764  0.32157350     0.07460
C208        C  0.43321633  0.87844168  0.28404846    -0.02670
Br209      Br  0.41962766  0.93056249  0.26378337    -0.01220
Br210      Br  0.35713623  0.86059729  0.22505256    -0.01290
Br211      Br  0.52397976  0.81684355  0.37421418    -0.01250
Br212      Br  0.47969463  0.74959588  0.30690132    -0.01230
C213        C  0.45902084  0.63365521  0.13313686    -0.02360
C214        C  0.44462410  0.59545950  0.12113294     0.07320
C215        C  0.41261547  0.58275661  0.13572317    -0.02470
C216        C  0.39632620  0.60715522  0.16204343    -0.02470
C217        C  0.41424518  0.64247691  0.17797174     0.07460
C218        C  0.44564170  0.65561826  0.16379911    -0.02670
Br219      Br  0.47162938  0.70310377  0.18849215    -0.01220
Br220      Br  0.49749760  0.65788040  0.10999541    -0.01290
Br221      Br  0.34695270  0.59400221  0.17249170    -0.01250
Br222      Br  0.38899588  0.53311234  0.11978179    -0.01230
C223        C  0.44005994  0.64422454  0.00727432    -0.02360
C224        C  0.40002961  0.64519346  0.00478397     0.07320
C225        C  0.38190843  0.60982422  0.00805295    -0.02470
C226        C  0.40523940  0.57667951  0.02421875    -0.02470
C227        C  0.44621669  0.58025987  0.04232932     0.07460
C228        C  0.46278429  0.61088785  0.02405999    -0.02670
Br229      Br  0.51428676  0.60638920  0.51690449    -0.01220
Br230      Br  0.46350132  0.68830872  0.48717889    -0.01290
Br231      Br  0.38189223  0.52615933  0.01436030    -0.01250
Br232      Br  0.32616018  0.60645918  0.99064196    -0.01230
C233        C  0.24670834  0.63013976  0.16517603    -0.02360
C234        C  0.26160313  0.66161674  0.14624983     0.07320
C235        C  0.25939806  0.66001646  0.10057992    -0.02470
C236        C  0.24414102  0.62718234  0.07495286    -0.02470
C237        C  0.23501828  0.59371046  0.09567164     0.07460
C238        C  0.23516541  0.59580571  0.14067809    -0.02670
Br239      Br  0.21881030  0.55195115  0.16938843    -0.01220
Br240      Br  0.24458811  0.63169635  0.22574818    -0.01290
Br241      Br  0.23710285  0.62818079  0.01172714    -0.01250
Br242      Br  0.27953349  0.70154909  0.07297162    -0.01230
C243        C  0.05447731  0.50052730  0.03721921    -0.02360
C244        C  0.08890086  0.52170524  0.05221515     0.07320
C245        C  0.09026808  0.55185791  0.08238871    -0.02470
C246        C  0.06042457  0.55666698  0.10336363    -0.02470
C247        C  0.02463659  0.53590326  0.08881577     0.07260
C248        C  0.02131996  0.51059506  0.05158116    -0.02670
Br249      Br  0.97251611  0.49684021  0.01118928    -0.01220
Br250      Br  0.05322778  0.45674068  0.99831644    -0.01290
Br251      Br  0.07046035  0.59543303  0.14834377    -0.01250
Br252      Br  0.13172218  0.58943436  0.09089554    -0.01230
C253        C  0.00182479  0.12696060  0.05995653    -0.02360
C254        C  0.01423165  0.08749388  0.06628809     0.07320
C255        C  0.04450136  0.07864543  0.10530111    -0.02470
C256        C  0.06633698  0.10850585  0.13151472    -0.02470
C257        C  0.05578097  0.14774546  0.12293534     0.07460
C258        C  0.02225667  0.15670511  0.08780430    -0.02670
Br259      Br  0.00659183  0.21033864  0.07341836    -0.01220
Br260      Br  0.95669772  0.14153482  0.01310604    -0.01290
Br261      Br  0.11270131  0.09549819  0.17729109    -0.01250
Br262      Br  0.05880322  0.02606621  0.12340973    -0.01230
C263        C  0.18010611  0.31372443  0.07819548    -0.02360
C264        C  0.14362304  0.31292024  0.08806867     0.07320
C265        C  0.12170562  0.34800865  0.08513143    -0.02470
C266        C  0.13942680  0.38320924  0.08169895    -0.02470
C267        C  0.17394310  0.38377826  0.06889845     0.07460
C268        C  0.19367726  0.34890618  0.06536358    -0.02670
Br269      Br  0.23975701  0.34997726  0.04478429    -0.01220
Br270      Br  0.21236475  0.26781772  0.08301973    -0.01290
Br271      Br  0.11964488  0.43000263  0.10209378    -0.01250
Br272      Br  0.06758230  0.35048628  0.08570533    -0.01230
C273        C  0.00500832  0.51249288  0.23545914    -0.02360
C274        C  0.48462833  0.47710629  0.23027314     0.07320
C275        C  0.46439190  0.46648511  0.18684669    -0.02470
C276        C  0.47163073  0.48492499  0.14971570    -0.02470
C277        C  0.49091901  0.52144519  0.15344536     0.07460
C278        C  0.00487721  0.53607625  0.19809106    -0.02670
Br279      Br  0.01759969  0.58931981  0.21268792    -0.01220
Br280      Br  0.03061930  0.53009867  0.29493649    -0.01290
Br281      Br  0.45092636  0.45924695  0.09421397    -0.01250
Br282      Br  0.41817914  0.43594238  0.17771619    -0.01230
C283        C  0.07192572  0.36909268  0.22472480    -0.02360
C284        C  0.05557476  0.33188377  0.21835105     0.07320
C285        C  0.01713080  0.32646331  0.21901846    -0.02470
C286        C  0.99564023  0.35780769  0.22917846    -0.02470
C287        C  0.01358719  0.39434153  0.24286422     0.07460
C288        C  0.05079071  0.40050078  0.23590241    -0.02670
Br289      Br  0.07251751  0.45138141  0.23606336    -0.01220
Br290      Br  0.12460443  0.37633120  0.22083180    -0.01290
Br291      Br  0.94076893  0.34962694  0.21856162    -0.01250
Br292      Br  0.99373718  0.27577436  0.20481157    -0.01230
C293        C  0.99025812  0.36592511  0.33274454    -0.02360
C294        C  0.01320796  0.39589172  0.32232089     0.07320
C295        C  0.05264227  0.39807596  0.34868291    -0.02470
C296        C  0.06894093  0.36908380  0.38025955    -0.02470
C297        C  0.04903725  0.33419656  0.38069513     0.07460
C298        C  0.00838117  0.33392010  0.35916366    -0.02670
Br299      Br  0.97647391  0.29013084  0.36425473    -0.01220
Br300      Br  0.43407117  0.36960279  0.31538910    -0.01290
Br301      Br  0.11658355  0.37878805  0.42605246    -0.01250
Br302      Br  0.08533322  0.44086567  0.34367969    -0.01230
C303        C  0.21200750  0.34378567  0.33509002    -0.02360
C304        C  0.24606163  0.35628635  0.32566745     0.07320
C305        C  0.26171466  0.33442334  0.29660952    -0.02470
C306        C  0.24208387  0.30123773  0.27511297    -0.02470
C307        C  0.20549745  0.29059401  0.28102411     0.07460
C308        C  0.19119727  0.31180387  0.31239000    -0.02670
Br309      Br  0.14099870  0.30153062  0.32146968    -0.01220
Br310      Br  0.19341736  0.37226568  0.37831592    -0.01290
Br311      Br  0.26554124  0.27116122  0.23692466    -0.01250
Br312      Br  0.30913046  0.35142353  0.28471276    -0.01230
C313        C  0.42056165  0.48894346  0.27959402    -0.02360
C314        C  0.45612956  0.46875954  0.29899056     0.07320
C315        C  0.46228692  0.45873812  0.34404340    -0.02470
C316        C  0.43046984  0.45297690  0.36176502    -0.02470
C317        C  0.39235133  0.46373177  0.33681890     0.07460
C318        C  0.38858301  0.48562311  0.29757728    -0.02670
Br319      Br  0.34120490  0.51500784  0.26999757    -0.01220
Br320      Br  0.41788641  0.53014962  0.23778951    -0.01290
Br321      Br  0.44043815  0.42795964  0.41878653    -0.01250
Br322      Br  0.51141883  0.47003674  0.38511096    -0.01230
C323        C  0.35286712  0.58649715  0.37902000    -0.02360
C324        C  0.31331469  0.57607358  0.37116607     0.07320
C325        C  0.28395536  0.60468717  0.35662256    -0.02470
C326        C  0.29354452  0.64145149  0.34328105    -0.02470
C327        C  0.33219483  0.64869112  0.34252381     0.07460
C328        C  0.36216727  0.62312849  0.36552145    -0.02670
Br329      Br  0.41617714  0.63785326  0.37717909    -0.01220
Br330      Br  0.39483776  0.54984050  0.40316932    -0.01290
Br331      Br  0.25363386  0.68098614  0.32578944    -0.01250
Br332      Br  0.23071445  0.59332672  0.35468245    -0.01230
In333      In  0.29323132  0.46013078  0.87924383     1.36870
C334        C  0.30305844  0.53504499  0.87539381     0.77070
O335        O  0.23940670  0.47718407  0.89737928    -0.61370
O336        O  0.28854929  0.45538547  0.94861202    -0.52290
C337        C  0.26368140  0.39351090  0.84460028     0.69740
O338        O  0.25137667  0.42610030  0.82676362    -0.47140
C339        C  0.35724598  0.45727420  0.85315136     0.74440
O340        O  0.27745147  0.51736860  0.84528290    -0.59000
O341        O  0.35833793  0.45230029  0.89371467    -0.49090
O342        O  0.32116874  0.51447216  0.90819279    -0.55430
C343        C  0.25410456  0.46983056  0.93816494     0.84620
O344        O  0.29096982  0.39512763  0.88048165    -0.57330
O345        O  0.32318887  0.45881517  0.82690571    -0.60620
C346        C  0.48239575  0.45353640  0.77069644     0.00050
C347        C  0.00084854  0.41707051  0.77805334     0.00050
In348      In  0.11828686  0.24496654  0.68052853     1.36870
C349        C  0.17887647  0.26452292  0.74782283     0.77070
O350        O  0.15876027  0.25954492  0.63968363    -0.61370
O351        O  0.09928060  0.27656479  0.61687810    -0.52290
C352        C  0.07962875  0.17974917  0.64919610     0.69740
O353        O  0.11655435  0.18074552  0.66066821    -0.47140
C354        C  0.07692365  0.29972834  0.70515080     0.74440
O355        O  0.14978027  0.24730989  0.75413835    -0.59000
O356        O  0.08781510  0.30167167  0.67059008    -0.49090
O357        O  0.18027529  0.26279818  0.70830914    -0.55430
C358        C  0.13332042  0.28038773  0.61322079     0.84620
O359        O  0.06405836  0.20988548  0.65940547    -0.57330
O360        O  0.08555320  0.26845135  0.72683438    -0.60620
In361      In  0.19443481  0.49205481  0.53099976     1.36870
C362        C  0.18535748  0.42084551  0.55412230     0.77070
O363        O  0.15608645  0.50449138  0.57324029    -0.61370
O364        O  0.12986841  0.50703954  0.00316549    -0.52290
C365        C  0.22373495  0.55710729  0.57047228     0.69740
O366        O  0.23504140  0.52388904  0.58676498    -0.47140
C367        C  0.23272626  0.47836495  0.97105135     0.74440
O368        O  0.21176660  0.44201130  0.57813909    -0.59000
O369        O  0.19828032  0.49232210  0.96067355    -0.49090
O370        O  0.16608331  0.43527860  0.01760663    -0.55430
C371        C  0.12563952  0.51048273  0.54196377     0.84620
O372        O  0.20038033  0.55652107  0.53193923    -0.57330
O373        O  0.24768670  0.47266080  0.01195880    -0.60620
C374        C  0.49149835  0.54388908  0.61041310     0.00050
C375        C  0.46203145  0.57073745  0.59164602     0.00050
In376      In  0.35131790  0.71074646  0.73910056     1.36870
C377        C  0.28873116  0.68931190  0.67587958     0.77070
O378        O  0.38676964  0.70271833  0.69207155    -0.61370
O379        O  0.38600010  0.65666400  0.73702217    -0.52290
C380        C  0.39102817  0.77618567  0.76326915     0.69740
O381        O  0.36089961  0.77555750  0.73059401    -0.47140
C382        C  0.34020945  0.67462918  0.80846049     0.74440
O383        O  0.28600354  0.70083009  0.71316343    -0.59000
O384        O  0.36688935  0.66593365  0.79065276    -0.49090
O385        O  0.32046214  0.69762745  0.66866798    -0.55430
C386        C  0.39635879  0.66821580  0.70401579     0.84620
O387        O  0.39661829  0.74527192  0.78524117    -0.57330
O388        O  0.31966532  0.70413257  0.79176838    -0.60620
In389      In  0.18147697  0.98478426  0.77134136     1.36870
C390        C  0.16770762  0.05871602  0.78495750     0.77070
O391        O  0.23486770  0.00287688  0.75237829    -0.61370
O392        O  0.18652174  0.98278870  0.70084719    -0.52290
C393        C  0.22240689  0.92761935  0.81943535     0.69740
O394        O  0.22074563  0.96182957  0.83377914    -0.47140
C395        C  0.11593780  0.95873011  0.78551111     0.74440
O396        O  0.19558702  0.03993120  0.81078166    -0.59000
O397        O  0.12107675  0.95684917  0.74700771    -0.49090
O398        O  0.14805004  0.03952220  0.75216387    -0.55430
C399        C  0.22093879  0.99614876  0.71153227     0.84620
O400        O  0.20450094  0.92345090  0.77890657    -0.57330
O401        O  0.14328033  0.97443643  0.81440642    -0.60620
C402        C  0.47040791  0.89654565  0.86224588     0.00050
C403        C  0.49364660  0.92962090  0.87044545     0.00050
In404      In  0.35416872  0.75635932  0.98818622     1.36870
C405        C  0.30209097  0.80397862  0.93641627     0.77070
O406        O  0.31303812  0.76715389  0.52962528    -0.61370
O407        O  0.37058755  0.78823642  0.55172241    -0.52290
C408        C  0.37935085  0.68329462  0.50058590     0.69740
O409        O  0.34807619  0.69184943  0.97100964    -0.47140
C410        C  0.40534759  0.78368263  0.95115375     0.74440
O411        O  0.29415067  0.76819854  0.93927425    -0.59000
O412        O  0.40756849  0.78914094  0.99160832    -0.49090
O413        O  0.33595052  0.81277334  0.95815198    -0.55430
C414        C  0.33636847  0.78960450  0.55577912     0.84620
O415        O  0.39403095  0.71099517  0.52585754    -0.57330
O416        O  0.38056769  0.75888157  0.93174667    -0.60620
In417      In  0.28414375  0.01391436  0.62116838     1.36870
C418        C  0.29478865  0.93868775  0.61116071     0.77070
O419        O  0.31551976  0.01442467  0.57014507    -0.61370
O420        O  0.34788364  0.03007684  0.63587009    -0.52290
C421        C  0.25520451  0.08311059  0.59061433     0.69740
O422        O  0.24264903  0.05156392  0.57068873    -0.47140
C423        C  0.24350367  0.00335301  0.67928573     0.74440
O424        O  0.26949299  0.95850292  0.58248119    -0.59000
O425        O  0.27884946  0.01442907  0.69092764    -0.49090
O426        O  0.31278882  0.95742682  0.64547469    -0.55430
C427        C  0.34787979  0.02507576  0.59554574     0.84620
O428        O  0.28192666  0.07906870  0.62662514    -0.57330
O429        O  0.22898959  0.99871954  0.63794753    -0.60620
C430        C  0.50664242  0.06014263  0.52640785     0.00050
C431        C  0.48043608  0.02940764  0.51897756     0.00050
In432      In  0.10939813  0.22898279  0.91991735     1.36870
C433        C  0.16985010  0.20849629  0.98841474     0.77070
O434        O  0.08387865  0.19793667  0.96690773    -0.61370
O435        O  0.07201769  0.17660739  0.90075770    -0.52290
C436        C  0.07153406  0.29796266  0.89946461     0.69740
O437        O  0.10811584  0.29427747  0.90736278    -0.47140
C438        C  0.12681493  0.20100373  0.84925243     0.74440
O439        O  0.14187371  0.22934140  0.99332292    -0.59000
O440        O  0.09347937  0.19922086  0.85549719    -0.49090
O441        O  0.16967563  0.20426316  0.94856175    -0.55430
C442        C  0.06952534  0.17158898  0.93950495     0.84620
O443        O  0.05558719  0.26706367  0.90556826    -0.57330
O444        O  0.15045152  0.22198485  0.87711585    -0.60620
C445        C  0.08079414  0.10946661  0.97968127    -0.02360
C446        C  0.05458477  0.13597693  0.95312454     0.07320
C447        C  0.01527609  0.12669962  0.93824462    -0.02470
C448        C  0.00273050  0.09201868  0.45266923    -0.02470
C449        C  0.02608434  0.07327139  0.49152237     0.07460
C450        C  0.06682655  0.08102756  0.50293190    -0.02670
Br451      Br  0.10538143  0.05549126  0.54964826    -0.01220
Br452      Br  0.13470937  0.10939316  0.97931701    -0.01290
Br453      Br  0.46695840  0.06389781  0.40694251    -0.01250
Br454      Br  0.97936686  0.15949886  0.89574457    -0.01230
C455        C  0.25601096  0.14439483  0.54698182    -0.02360
C456        C  0.23872849  0.12177880  0.57344864     0.07320
C457        C  0.20415448  0.13530821  0.58167651    -0.02470
C458        C  0.18351085  0.16739428  0.55794366    -0.02470
C459        C  0.19721798  0.18559759  0.52470665     0.07460
C460        C  0.23491748  0.17545035  0.52155957    -0.02670
Br461      Br  0.25771960  0.20360713  0.98204080    -0.01220
Br462      Br  0.30917854  0.13418494  0.54763021    -0.01290
Br463      Br  0.13427068  0.18211868  0.56770378    -0.01250
Br464      Br  0.18559724  0.10917609  0.62570632    -0.01230
C465        C  0.42011153  0.01714815  0.60238305    -0.02360
C466        C  0.38260411  0.03025338  0.57817463     0.07320
C467        C  0.37765735  0.04355243  0.53429488    -0.02470
C468        C  0.41029922  0.04776626  0.51765380    -0.02470
C469        C  0.44685961  0.03040009  0.53998956     0.07460
C470        C  0.44949561  0.01151974  0.58062415    -0.02670
Br471      Br  0.48447433  0.96799202  0.59901603    -0.01220
Br472      Br  0.43199389  0.00573352  0.66469238    -0.01290
Br473      Br  0.40090977  0.07047266  0.45974459    -0.01250
Br474      Br  0.32618946  0.05272012  0.49405957    -0.01230
C475        C  0.35274550  0.84505924  0.60894997    -0.02360
C476        C  0.32390396  0.82054124  0.58279821     0.07320
C477        C  0.28419287  0.83262096  0.57362826    -0.02470
C478        C  0.27452028  0.87044852  0.58538562    -0.02470
C479        C  0.30419097  0.89709202  0.60445907     0.07460
C480        C  0.34338429  0.88380889  0.61664180    -0.02670
Br481      Br  0.38561936  0.91906926  0.63905387    -0.01220
Br482      Br  0.40555961  0.82602357  0.63478186    -0.01290
Br483      Br  0.22046798  0.88573545  0.57523644    -0.01250
Br484      Br  0.24223604  0.79879401  0.54404934    -0.01230
C485        C  0.44983018  0.98245786  0.95333709    -0.02360
C486        C  0.48271196  0.99758948  0.98517814     0.07320
C487        C  0.01931286  0.98701087  0.97953883    -0.02470
C488        C  0.02324237  0.97347184  0.93872507    -0.02470
C489        C  0.49038968  0.95896495  0.90625138     0.07460
C490        C  0.45356661  0.96789604  0.91271151    -0.02670
Br491      Br  0.41070998  0.97923248  0.86211423    -0.01220
Br492      Br  0.40251233  0.96863045  0.96717822    -0.01290
Br493      Br  0.07167210  0.98628600  0.92692424    -0.01250
Br494      Br  0.06028467  0.97270435  0.53080172    -0.01230
C495        C  0.39987896  0.82961511  0.88935374    -0.02360
C496        C  0.42366210  0.81093946  0.92727971     0.07320
C497        C  0.45952837  0.82729828  0.94959450    -0.02470
C498        C  0.47165026  0.86205769  0.93428165    -0.02470
C499        C  0.44941553  0.87972106  0.89414742     0.07460
C500        C  0.41102869  0.86540513  0.87587246    -0.02670
Br501      Br  0.37028018  0.89612799  0.83704782    -0.01220
Br502      Br  0.35118144  0.80725844  0.85495357    -0.01290
Br503      Br  0.51539274  0.88665250  0.97370756    -0.01250
Br504      Br  0.49327053  0.80036342  0.00021462    -0.01230
C505        C  0.28557474  0.87413221  0.91999810    -0.02360
C506        C  0.27635389  0.83463998  0.90936518     0.07320
C507        C  0.24710783  0.82596686  0.87015155    -0.02470
C508        C  0.23021627  0.85586451  0.83981745    -0.02470
C509        C  0.24216905  0.89506319  0.84883445     0.07460
C510        C  0.27066849  0.90360800  0.88893038    -0.02670
Br511      Br  0.29290759  0.95498518  0.90098886    -0.01220
Br512      Br  0.31629960  0.88939000  0.97884545    -0.01290
Br513      Br  0.19068537  0.84176816  0.78626172    -0.01250
Br514      Br  0.22851146  0.77363407  0.85843961    -0.01230
C515        C  0.06071297  0.91444798  0.85885590    -0.02360
C516        C  0.02430231  0.93485481  0.84563308     0.07320
C517        C  0.01843081  0.96120557  0.80966896    -0.02470
C518        C  0.04523091  0.96255877  0.78389687    -0.02470
C519        C  0.08172521  0.94379269  0.79850739     0.07460
C520        C  0.08884571  0.91900694  0.83546516    -0.02670
Br521      Br  0.13870769  0.89235199  0.85552188    -0.01220
Br522      Br  0.07860901  0.88930597  0.91569882    -0.01290
Br523      Br  0.03209433  0.98985828  0.72840326    -0.01250
Br524      Br  0.98046774  0.00269165  0.80234211    -0.01230
C525        C  0.10893305  0.15001656  0.79183279    -0.02360
C526        C  0.13801747  0.17458195  0.81714124     0.07320
C527        C  0.17758897  0.16451963  0.82202160    -0.02470
C528        C  0.18734987  0.12736112  0.80862739    -0.02470
C529        C  0.15786225  0.09964640  0.79288522     0.07460
C530        C  0.11843453  0.11147577  0.78436703    -0.02670
Br531      Br  0.07679176  0.07455264  0.76936118    -0.01220
Br532      Br  0.05569653  0.16844373  0.76840422    -0.01290
Br533      Br  0.24098898  0.11441507  0.81247709    -0.01250
Br534      Br  0.21862140  0.20073559  0.84718431    -0.01230
C535        C  0.40810530  0.84801386  0.76385895    -0.02360
C536        C  0.41879415  0.80912687  0.77583076     0.07320
C537        C  0.45697382  0.80151163  0.80285882    -0.02470
C538        C  0.47888598  0.83169436  0.82773697    -0.02470
C539        C  0.46538974  0.87082038  0.82159291     0.07460
C540        C  0.43325108  0.87845968  0.78406722    -0.02670
Br541      Br  0.41966939  0.93057775  0.76378674    -0.01220
Br542      Br  0.35716978  0.86061314  0.72507641    -0.01290
Br543      Br  0.52401806  0.81687352  0.87423916    -0.01250
Br544      Br  0.47972522  0.74961455  0.80694904    -0.01230
C545        C  0.45904194  0.63366556  0.63315137    -0.02360
C546        C  0.44464308  0.59546953  0.62115367     0.07320
C547        C  0.41263176  0.58277220  0.63574160    -0.02470
C548        C  0.39634181  0.60717595  0.66205628    -0.02470
C549        C  0.41425895  0.64250052  0.67797598     0.07460
C550        C  0.44565509  0.65563930  0.66380035    -0.02670
Br551      Br  0.47163524  0.70313293  0.68847706    -0.01220
Br552      Br  0.49754743  0.65786619  0.61003519    -0.01290
Br553      Br  0.34697037  0.59402506  0.67251021    -0.01250
Br554      Br  0.38901464  0.53312528  0.61980881    -0.01230
C555        C  0.44006385  0.64422720  0.50730483    -0.02360
C556        C  0.40003267  0.64518640  0.50481231     0.07320
C557        C  0.38191871  0.60981254  0.50807924    -0.02470
C558        C  0.40525653  0.57667185  0.52424377    -0.02470
C559        C  0.44623321  0.58026061  0.54235476     0.07460
C560        C  0.46279501  0.61089428  0.52408860    -0.02670
Br561      Br  0.51426793  0.60636606  0.01685755    -0.01220
Br562      Br  0.46350603  0.68829926  0.98714575    -0.01290
Br563      Br  0.38191750  0.52614738  0.51438985    -0.01250
Br564      Br  0.32617089  0.60643605  0.49066834    -0.01230
C565        C  0.24673816  0.63015005  0.66522535    -0.02360
C566        C  0.26162194  0.66163343  0.64629769     0.07320
C567        C  0.25940805  0.66003941  0.60062578    -0.02470
C568        C  0.24416073  0.62720209  0.57499878    -0.02470
C569        C  0.23504757  0.59372498  0.59571730     0.07460
C570        C  0.23519927  0.59581579  0.64072578    -0.02670
Br571      Br  0.21885607  0.55195521  0.66943760    -0.01220
Br572      Br  0.24462376  0.63170120  0.72579970    -0.01290
Br573      Br  0.23712497  0.62820411  0.51177352    -0.01250
Br574      Br  0.27951227  0.70159158  0.57301408    -0.01230
C575        C  0.05449972  0.50055762  0.53723421    -0.02360
C576        C  0.08892622  0.52172859  0.55224589     0.07320
C577        C  0.09029493  0.55186775  0.58243622    -0.02470
C578        C  0.06045046  0.55666632  0.60341150    -0.02470
C579        C  0.02465831  0.53591185  0.58884648     0.07260
C580        C  0.02134158  0.51061783  0.55159895    -0.02670
Br581      Br  0.97253906  0.49685857  0.51120680    -0.01220
Br582      Br  0.05324820  0.45678936  0.49830559    -0.01290
Br583      Br  0.07049834  0.59539600  0.64843252    -0.01250
Br584      Br  0.13175444  0.58944028  0.59097015    -0.01230
C585        C  0.00183487  0.12701087  0.55982876    -0.02360
C586        C  0.01420963  0.08753608  0.56619032     0.07320
C587        C  0.04444754  0.07868120  0.60523080    -0.02470
C588        C  0.06627734  0.10853611  0.63146170    -0.02470
C589        C  0.05575297  0.14777917  0.62285684     0.07460
C590        C  0.02226644  0.15675088  0.58768320    -0.02670
Br591      Br  0.00666117  0.21039182  0.57325313    -0.01220
Br592      Br  0.95675332  0.14160622  0.51292847    -0.01290
Br593      Br  0.11259237  0.09551707  0.67730478    -0.01250
Br594      Br  0.05872264  0.02610022  0.62335032    -0.01230
C595        C  0.18010715  0.31373385  0.57817476    -0.02360
C596        C  0.14361543  0.31292580  0.58802759     0.07320
C597        C  0.12169657  0.34801373  0.58508630    -0.02470
C598        C  0.13942241  0.38321580  0.58167323    -0.02470
C599        C  0.17394820  0.38378938  0.56889266     0.07460
C600        C  0.19368597  0.34891888  0.56536042    -0.02670
Br601      Br  0.23978116  0.34999623  0.54481050    -0.01220
Br602      Br  0.21236855  0.26782862  0.58300685    -0.01290
Br603      Br  0.11963467  0.43000292  0.60207384    -0.01250
Br604      Br  0.06756593  0.35048876  0.58563261    -0.01230
C605        C  0.00501056  0.51250005  0.73548381    -0.02360
C606        C  0.48463402  0.47711132  0.73029247     0.07320
C607        C  0.46440583  0.46648924  0.68686367    -0.02470
C608        C  0.47165170  0.48493012  0.64973756    -0.02470
C609        C  0.49093492  0.52145302  0.65347197     0.07460
C610        C  0.00488104  0.53608609  0.69811853    -0.02670
Br611      Br  0.01758112  0.58933412  0.71272093    -0.01220
Br612      Br  0.03061058  0.53010652  0.79496419    -0.01290
Br613      Br  0.45096266  0.45925024  0.59423422    -0.01250
Br614      Br  0.41819347  0.43594438  0.67772021    -0.01230
C615        C  0.07191956  0.36910850  0.72471139    -0.02360
C616        C  0.05556545  0.33190105  0.71832342     0.07320
C617        C  0.01712484  0.32647781  0.71900276    -0.02470
C618        C  0.99564036  0.35781691  0.72918509    -0.02470
C619        C  0.01359089  0.39434727  0.74288178     0.07460
C620        C  0.05079190  0.40051080  0.73591438    -0.02670
Br621      Br  0.07252793  0.45139091  0.73610828    -0.01220
Br622      Br  0.12459460  0.37635174  0.72080779    -0.01290
Br623      Br  0.94077085  0.34963402  0.71858327    -0.01250
Br624      Br  0.99372646  0.27579208  0.70478213    -0.01230
C625        C  0.99025757  0.36592353  0.83275402    -0.02360
C626        C  0.01320569  0.39589544  0.82233785     0.07320
C627        C  0.05263845  0.39808152  0.84870453    -0.02470
C628        C  0.06893854  0.36908484  0.88027482    -0.02470
C629        C  0.04903721  0.33419476  0.88070129     0.07460
C630        C  0.00838236  0.33391522  0.85916489    -0.02670
Br631      Br  0.97647963  0.29011491  0.86423112    -0.01220
Br632      Br  0.43407062  0.36959949  0.81540742    -0.01290
Br633      Br  0.11658155  0.37878356  0.92606974    -0.01250
Br634      Br  0.08532494  0.44087967  0.84371745    -0.01230
C635        C  0.21196871  0.34379836  0.83503769    -0.02360
C636        C  0.24602764  0.35629533  0.82562315     0.07320
C637        C  0.26168628  0.33442906  0.79657255    -0.02470
C638        C  0.24205672  0.30124360  0.77507490    -0.02470
C639        C  0.20546794  0.29060167  0.78098012     0.07460
C640        C  0.19116245  0.31181352  0.81234032    -0.02670
Br641      Br  0.14096374  0.30153538  0.82141812    -0.01220
Br642      Br  0.19336555  0.37228811  0.87824702    -0.01290
Br643      Br  0.26551894  0.27116399  0.73689343    -0.01250
Br644      Br  0.30910719  0.35142559  0.78468517    -0.01230
C645        C  0.42055504  0.48894095  0.77959343    -0.02360
C646        C  0.45612284  0.46876036  0.79899847     0.07320
C647        C  0.46227180  0.45873753  0.84404938    -0.02470
C648        C  0.43044918  0.45297260  0.86176043    -0.02470
C649        C  0.39233221  0.46372292  0.83680443     0.07460
C650        C  0.38856965  0.48561415  0.79756381    -0.02670
Br651      Br  0.34119005  0.51499063  0.76996699    -0.01220
Br652      Br  0.41788866  0.53015532  0.73780126    -0.01290
Br653      Br  0.44040862  0.42795388  0.91878039    -0.01250
Br654      Br  0.51139739  0.47003819  0.88512830    -0.01230
C655        C  0.35287939  0.58647934  0.87901513    -0.02360
C656        C  0.31332372  0.57606878  0.87116352     0.07320
C657        C  0.28397393  0.60469355  0.85663399    -0.02470
C658        C  0.29357454  0.64145835  0.84330563    -0.02470
C659        C  0.33222573  0.64868683  0.84254291     0.07460
C660        C  0.36219092  0.62310974  0.86552541    -0.02670
Br661      Br  0.41620623  0.63781319  0.87717635    -0.01220
Br662      Br  0.39483823  0.54980752  0.90315217    -0.01290
Br663      Br  0.25367747  0.68100882  0.82583917    -0.01250
Br664      Br  0.23073029  0.59334783  0.85469577    -0.01230
In665      In  0.79325644  0.46013127  0.37927392     1.36870
C666        C  0.80306293  0.53504720  0.37540614     0.77070
O667        O  0.73943245  0.47718331  0.39741235    -0.61370
O668        O  0.78857963  0.45539672  0.44864686    -0.52290
C669        C  0.76371284  0.39350473  0.34464004     0.69740
O670        O  0.75140411  0.42609186  0.32680024    -0.47140
C671        C  0.85726890  0.45728301  0.35317337     0.74440
O672        O  0.77745979  0.51736110  0.34530070    -0.59000
O673        O  0.85836535  0.45231129  0.39373840    -0.49090
O674        O  0.82118142  0.51448216  0.40820839    -0.55430
C675        C  0.75413355  0.46983884  0.43819960     0.84620
O676        O  0.79100189  0.39512678  0.38052047    -0.57330
O677        O  0.82321004  0.45881957  0.32693143    -0.60620
C678        C  0.98239527  0.45353290  0.27068077     0.00050
C679        C  0.50084728  0.41706632  0.27803610     0.00050
In680      In  0.61831037  0.24495101  0.18057809     1.36870
C681        C  0.67890313  0.26451409  0.24786977     0.77070
O682        O  0.65878197  0.25955011  0.13973765    -0.61370
O683        O  0.59929715  0.27655094  0.11692619    -0.52290
C684        C  0.57965980  0.17972274  0.14925842     0.69740
O685        O  0.61658432  0.18073425  0.16069535    -0.47140
C686        C  0.57693632  0.29970905  0.20518900     0.74440
O687        O  0.64980603  0.24730501  0.25418788    -0.59000
O688        O  0.58781090  0.30163935  0.17061666    -0.49090
O689        O  0.68030056  0.26278325  0.20835591    -0.55430
C690        C  0.63333653  0.28038412  0.11327059     0.84620
O691        O  0.56409138  0.20984928  0.15949366    -0.57330
O692        O  0.58558696  0.26844460  0.22689266    -0.60620
In693      In  0.69440808  0.49203588  0.03096723     1.36870
C694        C  0.68534567  0.42083059  0.05411257     0.77070
O695        O  0.65606286  0.50447999  0.07320779    -0.61370
O696        O  0.62989879  0.50707463  0.50319777    -0.52290
C697        C  0.72370538  0.55709183  0.07043043     0.69740
O698        O  0.73501484  0.52387531  0.08672586    -0.47140
C699        C  0.73275629  0.47837942  0.47108635     0.74440
O700        O  0.71175190  0.44200444  0.07812048    -0.59000
O701        O  0.69831125  0.49233910  0.46070731    -0.49090
O702        O  0.66609890  0.43530428  0.51762079    -0.55430
C703        C  0.62561274  0.51045817  0.04193192     0.84620
O704        O  0.70034821  0.55650271  0.03189897    -0.57330
O705        O  0.74771578  0.47267767  0.51199456    -0.60620
C706        C  0.99147934  0.54388185  0.11038529     0.00050
C707        C  0.96201381  0.57073290  0.09162096     0.00050
In708      In  0.85128878  0.71072992  0.23906803     1.36870
C709        C  0.78871124  0.68929393  0.17583473     0.77070
O710        O  0.88675920  0.70269772  0.19206079    -0.61370
O711        O  0.88596656  0.65664192  0.23700169    -0.52290
C712        C  0.89099804  0.77616883  0.26323226     0.69740
O713        O  0.86087216  0.77553919  0.23055384    -0.47140
C714        C  0.84017515  0.67462508  0.30843273     0.74440
O715        O  0.78597492  0.70081913  0.21311278    -0.59000
O716        O  0.86685672  0.66592575  0.29062921    -0.49090
O717        O  0.82044814  0.69760149  0.16863362    -0.55430
C718        C  0.89633985  0.66819346  0.20400488     0.84620
O719        O  0.89658562  0.74525739  0.28520838    -0.57330
O720        O  0.81962899  0.70412457  0.29173148    -0.60620
In721      In  0.68145146  0.98476954  0.27134335     1.36870
C722        C  0.66769662  0.05870577  0.28496630     0.77070
O723        O  0.73484027  0.00286130  0.25237251    -0.61370
O724        O  0.68649154  0.98277659  0.20084438    -0.52290
C725        C  0.72238333  0.92760245  0.31943555     0.69740
O726        O  0.72072122  0.96181207  0.33378046    -0.47140
C727        C  0.61590900  0.95871959  0.28551120     0.74440
O728        O  0.69557134  0.03991365  0.31078844    -0.59000
O729        O  0.62104848  0.95683975  0.24700802    -0.49090
O730        O  0.64803166  0.03951350  0.25217587    -0.55430
C731        C  0.72090915  0.99613534  0.21152632     0.84620
O732        O  0.70447538  0.92343481  0.27890725    -0.57330
O733        O  0.64325278  0.97442270  0.31440780    -0.60620
C734        C  0.97037420  0.89651697  0.36223147     0.00050
C735        C  0.99360977  0.92959398  0.37043127     0.00050
In736      In  0.85416150  0.75634502  0.48819281     1.36870
C737        C  0.80208914  0.80396101  0.43640704     0.77070
O738        O  0.81304441  0.76715378  0.02962129    -0.61370
O739        O  0.87059614  0.78822725  0.05173131    -0.52290
C740        C  0.87935667  0.68330641  0.00056096     0.69740
O741        O  0.84807518  0.69183353  0.47102498    -0.47140
C742        C  0.90534869  0.78364344  0.45115946     0.74440
O743        O  0.79413994  0.76818603  0.43928596    -0.59000
O744        O  0.90756598  0.78911602  0.49161098    -0.49090
O745        O  0.83595488  0.81275069  0.45812614    -0.55430
C746        C  0.83637660  0.78959503  0.05578632     0.84620
O747        O  0.89404705  0.71100551  0.02582900    -0.57330
O748        O  0.88056882  0.75883952  0.43175994    -0.60620
In749      In  0.78412062  0.01388848  0.12116096     1.36870
C750        C  0.79477154  0.93866263  0.11117181     0.77070
O751        O  0.81549819  0.01437792  0.07013847    -0.61370
O752        O  0.84786269  0.03004166  0.13585758    -0.52290
C753        C  0.75520656  0.08308527  0.09058192     0.69740
O754        O  0.74264921  0.05153834  0.07065816    -0.47140
C755        C  0.74347374  0.00333866  0.17927756     0.74440
O756        O  0.76946891  0.95846972  0.08249075    -0.59000
O757        O  0.77881955  0.01441458  0.19091867    -0.49090
O758        O  0.81277206  0.95740831  0.14548049    -0.55430
C759        C  0.84785984  0.02502864  0.09553503     0.84620
O760        O  0.78191247  0.07904297  0.12660643    -0.57330
O761        O  0.72896106  0.99870273  0.13793921    -0.60620
C762        C  0.00666848  0.06012226  0.02648753     0.00050
C763        C  0.98045492  0.02939210  0.01902220     0.00050
In764      In  0.60940102  0.22898235  0.41990629     1.36870
C765        C  0.66982064  0.20850758  0.48844739     0.77070
O766        O  0.58384846  0.19789996  0.46684177    -0.61370
O767        O  0.57205612  0.17658636  0.40069215    -0.52290
C768        C  0.57153321  0.29796301  0.39945807     0.69740
O769        O  0.60811656  0.29428127  0.40737271    -0.47140
C770        C  0.62685258  0.20101470  0.34925616     0.74440
O771        O  0.64180688  0.22930903  0.49332999    -0.59000
O772        O  0.59350101  0.19925977  0.35546211    -0.49090
O773        O  0.66969838  0.20431812  0.44860446    -0.55430
C774        C  0.56953074  0.17155223  0.43942324     0.84620
O775        O  0.55558509  0.26705892  0.40554222    -0.57330
O776        O  0.65049350  0.22196545  0.37715311    -0.60620
C777        C  0.58079207  0.10943232  0.47960115    -0.02360
C778        C  0.55458967  0.13592808  0.45301254     0.07320
C779        C  0.51528648  0.12663800  0.43810029    -0.02470
C780        C  0.50273049  0.09206240  0.95278372    -0.02470
C781        C  0.52609912  0.07328744  0.99160735     0.07460
C782        C  0.56684083  0.08104658  0.00300494    -0.02670
Br783      Br  0.60541482  0.05549057  0.04968721    -0.01220
Br784      Br  0.63471705  0.10936222  0.47927591    -0.01290
Br785      Br  0.96701911  0.06393810  0.90700247    -0.01250
Br786      Br  0.47939758  0.15941097  0.39554565    -0.01230
C787        C  0.75601096  0.14432154  0.04687048    -0.02360
C788        C  0.73874990  0.12175555  0.07340041     0.07320
C789        C  0.70421444  0.13533690  0.08167980    -0.02470
C790        C  0.68357706  0.16742425  0.05794358    -0.02470
C791        C  0.69725882  0.18558698  0.02466351     0.07460
C792        C  0.73492811  0.17538662  0.02145743    -0.02670
Br793      Br  0.75773979  0.20373820  0.48222095    -0.01220
Br794      Br  0.80913976  0.13402901  0.04741635    -0.01290
Br795      Br  0.63436806  0.18219743  0.06775414    -0.01250
Br796      Br  0.68569474  0.10926658  0.12577535    -0.01230
C797        C  0.92010229  0.01713289  0.10240006    -0.02360
C798        C  0.88258680  0.03019605  0.07816363     0.07320
C799        C  0.87764402  0.04345718  0.03426908    -0.02470
C800        C  0.91029553  0.04770438  0.01765194    -0.02470
C801        C  0.94686586  0.03037285  0.04001524     0.07460
C802        C  0.94950189  0.01151329  0.08066137    -0.02670
Br803      Br  0.98450940  0.96801556  0.09909851    -0.01220
Br804      Br  0.93197491  0.00575112  0.16471704    -0.01290
Br805      Br  0.90091716  0.07042049  0.95974751    -0.01250
Br806      Br  0.82617951  0.05250450  0.99397420    -0.01230
C807        C  0.85275210  0.84505333  0.10895274    -0.02360
C808        C  0.82391288  0.82052517  0.08281398     0.07320
C809        C  0.78419899  0.83259107  0.07366126    -0.02470
C810        C  0.77451891  0.87041576  0.08541879    -0.02470
C811        C  0.80418389  0.89706960  0.10447506     0.07460
C812        C  0.84338157  0.88380040  0.11664308    -0.02670
Br813      Br  0.88560732  0.91907612  0.13903623    -0.01220
Br814      Br  0.90557532  0.82603650  0.13477005    -0.01290
Br815      Br  0.72046455  0.88568526  0.07529376    -0.01250
Br816      Br  0.74224775  0.79874808  0.04410855    -0.01230
C817        C  0.94980143  0.98244751  0.45332651    -0.02360
C818        C  0.98268726  0.99758502  0.48515547     0.07320
C819        C  0.51928514  0.98699828  0.47951509    -0.02470
C820        C  0.52320909  0.97345149  0.43870290    -0.02470
C821        C  0.99035384  0.95893676  0.40623860     0.07460
C822        C  0.95353202  0.96786644  0.41270555    -0.02670
Br823      Br  0.91066205  0.97917096  0.36211138    -0.01220
Br824      Br  0.90246840  0.96868114  0.46717086    -0.01290
Br825      Br  0.57163622  0.98626307  0.42689348    -0.01250
Br826      Br  0.56030729  0.97270716  0.03082558    -0.01230
C827        C  0.89987298  0.82955776  0.38934428    -0.02360
C828        C  0.92366034  0.81089374  0.42727595     0.07320
C829        C  0.95951975  0.82726627  0.44958987    -0.02470
C830        C  0.97162921  0.86203009  0.43427306    -0.02470
C831        C  0.94938850  0.87968501  0.39413579     0.07460
C832        C  0.91100774  0.86535343  0.37586131    -0.02670
Br833      Br  0.87024472  0.89606212  0.33703868    -0.01220
Br834      Br  0.85118776  0.80717906  0.35494063    -0.01290
Br835      Br  0.01535732  0.88664358  0.47370267    -0.01250
Br836      Br  0.99326781  0.80034638  0.50021812    -0.01230
C837        C  0.78557611  0.87411525  0.41998531    -0.02360
C838        C  0.77635278  0.83462283  0.40935550     0.07320
C839        C  0.74710039  0.82594928  0.37014746    -0.02470
C840        C  0.73020011  0.85584722  0.33981748    -0.02470
C841        C  0.74215122  0.89504659  0.34883222     0.07460
C842        C  0.77065896  0.90359175  0.38892167    -0.02670
Br843      Br  0.79289275  0.95497159  0.40097595    -0.01220
Br844      Br  0.81632170  0.88937236  0.47882398    -0.01290
Br845      Br  0.69065948  0.84175068  0.28627027    -0.01250
Br846      Br  0.72851174  0.77361395  0.35843524    -0.01230
C847        C  0.56067499  0.91442286  0.35884020    -0.02360
C848        C  0.52426488  0.93483059  0.34561916     0.07320
C849        C  0.51839752  0.96119153  0.30966530    -0.02470
C850        C  0.54520244  0.96255569  0.28389988    -0.02470
C851        C  0.58169437  0.94378364  0.29850509     0.07460
C852        C  0.58881072  0.91898846  0.33545464    -0.02670
Br853      Br  0.63867240  0.89233304  0.35551153    -0.01220
Br854      Br  0.57856707  0.88927543  0.41568053    -0.01290
Br855      Br  0.53207840  0.98988535  0.22842664    -0.01250
Br856      Br  0.48042924  0.00267255  0.30234450    -0.01230
C857        C  0.60896714  0.15005146  0.29180651    -0.02360
C858        C  0.63805885  0.17459182  0.31714827     0.07320
C859        C  0.67762785  0.16450245  0.32205796    -0.02470
C860        C  0.68737345  0.12733804  0.30866481    -0.02470
C861        C  0.65786977  0.09964439  0.29288931     0.07460
C862        C  0.61844671  0.11150527  0.28433216    -0.02670
Br863      Br  0.57677114  0.07462049  0.26925222    -0.01220
Br864      Br  0.55574877  0.16852107  0.26834437    -0.01290
Br865      Br  0.74101388  0.11435875  0.31255771    -0.01250
Br866      Br  0.71867608  0.20069288  0.34725593    -0.01230
C867        C  0.90807310  0.84799711  0.26383129    -0.02360
C868        C  0.91876381  0.80910930  0.27579460     0.07320
C869        C  0.95694304  0.80149231  0.30282173    -0.02470
C870        C  0.97885261  0.83167170  0.32770908    -0.02470
C871        C  0.96535466  0.87079767  0.32157349     0.07460
C872        C  0.93321632  0.87844171  0.28404846    -0.02670
Br873      Br  0.91962763  0.93056251  0.26378337    -0.01220
Br874      Br  0.85713622  0.86059731  0.22505258    -0.01290
Br875      Br  0.02397977  0.81684359  0.37421416    -0.01250
Br876      Br  0.97969469  0.74959593  0.30690124    -0.01230
C877        C  0.95902085  0.63365520  0.13313676    -0.02360
C878        C  0.94462411  0.59545949  0.12113291     0.07320
C879        C  0.91261545  0.58275663  0.13572311    -0.02470
C880        C  0.89632615  0.60715529  0.16204330    -0.02470
C881        C  0.91424508  0.64247702  0.17797149     0.07460
C882        C  0.94564159  0.65561838  0.16379883    -0.02670
Br883      Br  0.97162912  0.70310401  0.18849166    -0.01220
Br884      Br  0.99749800  0.65788010  0.10999569    -0.01290
Br885      Br  0.84695270  0.59400224  0.17249165    -0.01250
Br886      Br  0.88899594  0.53311230  0.11978185    -0.01230
C887        C  0.94006000  0.64422455  0.00727445    -0.02360
C888        C  0.90002965  0.64519345  0.00478404     0.07320
C889        C  0.88190848  0.60982420  0.00805296    -0.02470
C890        C  0.90523945  0.57667949  0.02421874    -0.02470
C891        C  0.94621673  0.58025984  0.04232935     0.07460
C892        C  0.96278434  0.61088786  0.02406009    -0.02670
Br893      Br  0.01428677  0.60638923  0.51690451    -0.01220
Br894      Br  0.96350131  0.68830872  0.48717884    -0.01290
Br895      Br  0.88189225  0.52615931  0.01436034    -0.01250
Br896      Br  0.82616023  0.60645915  0.99064194    -0.01230
C897        C  0.74670832  0.63013976  0.16517606    -0.02360
C898        C  0.76160309  0.66161676  0.14624986     0.07320
C899        C  0.75939802  0.66001647  0.10057996    -0.02470
C900        C  0.74414102  0.62718234  0.07495290    -0.02470
C901        C  0.73501829  0.59371046  0.09567169     0.07460
C902        C  0.73516541  0.59580570  0.14067813    -0.02670
Br903      Br  0.71881030  0.55195114  0.16938846    -0.01220
Br904      Br  0.74458805  0.63169634  0.22574821    -0.01290
Br905      Br  0.73710290  0.62818077  0.01172719    -0.01250
Br906      Br  0.77953337  0.70154914  0.07297163    -0.01230
C907        C  0.55447735  0.50052723  0.03721927    -0.02360
C908        C  0.58890088  0.52170519  0.05221517     0.07320
C909        C  0.59026807  0.55185795  0.08238861    -0.02470
C910        C  0.56042450  0.55666713  0.10336344    -0.02470
C911        C  0.52463658  0.53590331  0.08881570     0.07260
C912        C  0.52131998  0.51059502  0.05158119    -0.02670
Br913      Br  0.47251614  0.49684016  0.01118929    -0.01220
Br914      Br  0.55322783  0.45674058  0.99831655    -0.01290
Br915      Br  0.57046005  0.59543362  0.14834310    -0.01250
Br916      Br  0.63172221  0.58943436  0.09089540    -0.01230
C917        C  0.50182477  0.12696058  0.05995661    -0.02360
C918        C  0.51423163  0.08749386  0.06628813     0.07320
C919        C  0.54450136  0.07864540  0.10530114    -0.02470
C920        C  0.56633699  0.10850581  0.13151475    -0.02470
C921        C  0.55578096  0.14774542  0.12293540     0.07460
C922        C  0.52225664  0.15670508  0.08780439    -0.02670
Br923      Br  0.50659178  0.21033861  0.07341851    -0.01220
Br924      Br  0.45669769  0.14153481  0.01310613    -0.01290
Br925      Br  0.61270136  0.09549814  0.17729104    -0.01250
Br926      Br  0.55880323  0.02606617  0.12340973    -0.01230
C927        C  0.68010608  0.31372443  0.07819557    -0.02360
C928        C  0.64362303  0.31292027  0.08806880     0.07320
C929        C  0.62170565  0.34800870  0.08513160    -0.02470
C930        C  0.63942686  0.38320928  0.08169912    -0.02470
C931        C  0.67394313  0.38377827  0.06889858     0.07460
C932        C  0.69367725  0.34890618  0.06536367    -0.02670
Br933      Br  0.73975697  0.34997721  0.04478432    -0.01220
Br934      Br  0.71236468  0.26781770  0.08301979    -0.01290
Br935      Br  0.61964499  0.43000269  0.10209398    -0.01250
Br936      Br  0.56758234  0.35048639  0.08570554    -0.01230
C937        C  0.50500833  0.51249285  0.23545907    -0.02360
C938        C  0.98462838  0.47710628  0.23027321     0.07320
C939        C  0.96439200  0.46648507  0.18684676    -0.02470
C940        C  0.97163084  0.48492496  0.14971578    -0.02470
C941        C  0.99091903  0.52144520  0.15344543     0.07460
C942        C  0.50487728  0.53607620  0.19809099    -0.02670
Br943      Br  0.51760004  0.58931969  0.21268785    -0.01220
Br944      Br  0.53061933  0.53009862  0.29493643    -0.01290
Br945      Br  0.95092655  0.45924687  0.09421405    -0.01250
Br946      Br  0.91817928  0.43594227  0.17771622    -0.01230
C947        C  0.57192565  0.36909260  0.22472479    -0.02360
C948        C  0.55557468  0.33188370  0.21835108     0.07320
C949        C  0.51713070  0.32646327  0.21901843    -0.02470
C950        C  0.49564013  0.35780768  0.22917836    -0.02470
C951        C  0.51358710  0.39434152  0.24286411     0.07460
C952        C  0.55079064  0.40050073  0.23590233    -0.02670
Br953      Br  0.57251745  0.45138135  0.23606320    -0.01220
Br954      Br  0.62460438  0.37633108  0.22083183    -0.01290
Br955      Br  0.44076881  0.34962699  0.21856141    -0.01250
Br956      Br  0.49373708  0.27577432  0.20481159    -0.01230
C957        C  0.49025807  0.36592508  0.33274445    -0.02360
C958        C  0.51320791  0.39589169  0.32232079     0.07320
C959        C  0.55264222  0.39807593  0.34868279    -0.02470
C960        C  0.56894089  0.36908378  0.38025945    -0.02470
C961        C  0.54903720  0.33419655  0.38069506     0.07460
C962        C  0.50838112  0.33392009  0.35916360    -0.02670
Br963      Br  0.47647384  0.29013087  0.36425476    -0.01220
Br964      Br  0.93407122  0.36960283  0.31538924    -0.01290
Br965      Br  0.61658351  0.37878804  0.42605234    -0.01250
Br966      Br  0.58533317  0.44086563  0.34367955    -0.01230
C967        C  0.71200755  0.34378565  0.33509009    -0.02360
C968        C  0.74606166  0.35628634  0.32566746     0.07320
C969        C  0.76171464  0.33442335  0.29660948    -0.02470
C970        C  0.74208384  0.30123775  0.27511294    -0.02470
C971        C  0.70549744  0.29059402  0.28102412     0.07460
C972        C  0.69119730  0.31180387  0.31239005    -0.02670
Br973      Br  0.64099874  0.30153063  0.32146976    -0.01220
Br974      Br  0.69341749  0.37226561  0.37831607    -0.01290
Br975      Br  0.76554117  0.27116126  0.23692457    -0.01250
Br976      Br  0.80913041  0.35142356  0.28471265    -0.01230
C977        C  0.92056167  0.48894344  0.27959403    -0.02360
C978        C  0.95612958  0.46875955  0.29899061     0.07320
C979        C  0.96228695  0.45873816  0.34404345    -0.02470
C980        C  0.93046987  0.45297694  0.36176507    -0.02470
C981        C  0.89235136  0.46373177  0.33681893     0.07460
C982        C  0.88858302  0.48562308  0.29757729    -0.02670
Br983      Br  0.84120489  0.51500778  0.26999754    -0.01220
Br984      Br  0.91788637  0.53014955  0.23778945    -0.01290
Br985      Br  0.94043819  0.42795973  0.41878661    -0.01250
Br986      Br  0.01141885  0.47003682  0.38511101    -0.01230
C987        C  0.85286718  0.58649713  0.37901999    -0.02360
C988        C  0.81331474  0.57607357  0.37116608     0.07320
C989        C  0.78395542  0.60468717  0.35662257    -0.02470
C990        C  0.79354458  0.64145149  0.34328106    -0.02470
C991        C  0.83219489  0.64869110  0.34252379     0.07460
C992        C  0.86216732  0.62312846  0.36552141    -0.02670
Br993      Br  0.91617719  0.63785321  0.37717900    -0.01220
Br994      Br  0.89483781  0.54984049  0.40316933    -0.01290
Br995      Br  0.75363393  0.68098615  0.32578948    -0.01250
Br996      Br  0.73071451  0.59332674  0.35468249    -0.01230
In997      In  0.79323129  0.46013080  0.87924382     1.36870
C998        C  0.80305835  0.53504502  0.87539375     0.77070
O999        O  0.73940668  0.47718406  0.89737930    -0.61370
O1000       O  0.78854930  0.45538548  0.94861203    -0.52290
C1001       C  0.76368137  0.39351092  0.84460026     0.69740
O1002       O  0.75137663  0.42610032  0.82676361    -0.47140
C1003       C  0.85724596  0.45727423  0.85315136     0.74440
O1004       O  0.77745139  0.51736861  0.84528284    -0.59000
O1005       O  0.85833791  0.45230033  0.89371467    -0.49090
O1006       O  0.82116866  0.51447221  0.90819274    -0.55430
C1007       C  0.75410456  0.46983055  0.93816496     0.84620
O1008       O  0.79096980  0.39512765  0.88048163    -0.57330
O1009       O  0.82318886  0.45881519  0.82690570    -0.60620
C1010       C  0.98239573  0.45353640  0.77069644     0.00050
C1011       C  0.50084856  0.41707050  0.77805334     0.00050
In1012     In  0.61828687  0.24496654  0.68052851     1.36870
C1013       C  0.67887648  0.26452292  0.74782281     0.77070
O1014       O  0.65876028  0.25954491  0.63968359    -0.61370
O1015       O  0.59928060  0.27656476  0.61687807    -0.52290
C1016       C  0.57962875  0.17974916  0.64919609     0.69740
O1017       O  0.61655436  0.18074551  0.66066820    -0.47140
C1018       C  0.57692368  0.29972835  0.70515078     0.74440
O1019       O  0.64978029  0.24730988  0.75413833    -0.59000
O1020       O  0.58781514  0.30167169  0.67059007    -0.49090
O1021       O  0.68027530  0.26279818  0.70830911    -0.55430
C1022       C  0.63332043  0.28038771  0.61322076     0.84620
O1023       O  0.56405837  0.20988548  0.65940544    -0.57330
O1024       O  0.58555321  0.26845134  0.72683435    -0.60620
In1025     In  0.69443476  0.49205480  0.53099968     1.36870
C1026       C  0.68535745  0.42084549  0.55412223     0.77070
O1027       O  0.65608640  0.50449136  0.57324022    -0.61370
O1028       O  0.62986844  0.50703948  0.00316553    -0.52290
C1029       C  0.72373489  0.55710728  0.57047218     0.69740
O1030       O  0.73504135  0.52388904  0.58676490    -0.47140
C1031       C  0.73272628  0.47836493  0.97105139     0.74440
O1032       O  0.71176656  0.44201129  0.57813902    -0.59000
O1033       O  0.69828035  0.49232209  0.96067360    -0.49090
O1034       O  0.66608337  0.43527857  0.01760671    -0.55430
C1035       C  0.62563947  0.51048270  0.54196370     0.84620
O1036       O  0.70038027  0.55652106  0.53193913    -0.57330
O1037       O  0.74768673  0.47266078  0.01195883    -0.60620
C1038       C  0.99149837  0.54388912  0.61041313     0.00050
C1039       C  0.96203146  0.57073749  0.59164605     0.00050
In1040     In  0.85131781  0.71074649  0.73910048     1.36870
C1041       C  0.78873111  0.68931191  0.67587945     0.77070
O1042       O  0.88676962  0.70271833  0.69207156    -0.61370
O1043       O  0.88600001  0.65666401  0.73702217    -0.52290
C1044       C  0.89102809  0.77618568  0.76326911     0.69740
O1045       O  0.86089959  0.77555751  0.73059390    -0.47140
C1046       C  0.84020929  0.67462922  0.80846039     0.74440
O1047       O  0.78600345  0.70083015  0.71316327    -0.59000
O1048       O  0.86688923  0.66593369  0.79065270    -0.49090
O1049       O  0.82046211  0.69762742  0.66866790    -0.55430
C1050       C  0.89635875  0.66821581  0.70401581     0.84620
O1051       O  0.89661813  0.74527196  0.78524116    -0.57330
O1052       O  0.81966517  0.70413259  0.79176825    -0.60620
In1053     In  0.68147700  0.98478424  0.77134137     1.36870
C1054       C  0.66770762  0.05871600  0.78495750     0.77070
O1055       O  0.73486772  0.00287687  0.75237829    -0.61370
O1056       O  0.68652176  0.98278869  0.70084719    -0.52290
C1057       C  0.72240691  0.92761932  0.81943534     0.69740
O1058       O  0.72074566  0.96182955  0.83377914    -0.47140
C1059       C  0.61593783  0.95873011  0.78551115     0.74440
O1060       O  0.69558703  0.03993119  0.81078166    -0.59000
O1061       O  0.62107677  0.95684915  0.74700774    -0.49090
O1062       O  0.64805005  0.03952217  0.75216387    -0.55430
C1063       C  0.72093881  0.99614875  0.71153227     0.84620
O1064       O  0.70450095  0.92345088  0.77890657    -0.57330
O1065       O  0.64328037  0.97443643  0.81440644    -0.60620
C1066       C  0.97040794  0.89654558  0.86224592     0.00050
C1067       C  0.99364663  0.92962085  0.87044547     0.00050
In1068     In  0.85416873  0.75635930  0.98818627     1.36870
C1069       C  0.80209100  0.80397860  0.93641628     0.77070
O1070       O  0.81303814  0.76715393  0.52962530    -0.61370
O1071       O  0.87058757  0.78823644  0.55172242    -0.52290
C1072       C  0.87935086  0.68329464  0.50058591     0.69740
O1073       O  0.84807623  0.69184941  0.97100968    -0.47140
C1074       C  0.90534763  0.78368260  0.95115383     0.74440
O1075       O  0.79415068  0.76819853  0.93927427    -0.59000
O1076       O  0.90756851  0.78914093  0.99160839    -0.49090
O1077       O  0.83595054  0.81277331  0.95815200    -0.55430
C1078       C  0.83636850  0.78960453  0.55577913     0.84620
O1079       O  0.89403097  0.71099520  0.52585754    -0.57330
O1080       O  0.88056774  0.75888153  0.93174675    -0.60620
In1081     In  0.78414375  0.01391439  0.62116838     1.36870
C1082       C  0.79478867  0.93868779  0.61116071     0.77070
O1083       O  0.81551976  0.01442470  0.57014507    -0.61370
O1084       O  0.84788363  0.03007688  0.63587009    -0.52290
C1085       C  0.75520448  0.08311061  0.59061433     0.69740
O1086       O  0.74264902  0.05156394  0.57068872    -0.47140
C1087       C  0.74350368  0.00335302  0.67928573     0.74440
O1088       O  0.76949300  0.95850294  0.58248119    -0.59000
O1089       O  0.77884947  0.01442909  0.69092764    -0.49090
O1090       O  0.81278884  0.95742685  0.64547469    -0.55430
C1091       C  0.84787979  0.02507580  0.59554573     0.84620
O1092       O  0.78192664  0.07906873  0.62662514    -0.57330
O1093       O  0.72898960  0.99871955  0.63794753    -0.60620
C1094       C  0.00664244  0.06014264  0.52640786     0.00050
C1095       C  0.98043609  0.02940766  0.51897757     0.00050
In1096     In  0.60939814  0.22898279  0.91991736     1.36870
C1097       C  0.66985012  0.20849629  0.98841473     0.77070
O1098       O  0.58387869  0.19793668  0.96690778    -0.61370
O1099       O  0.57201765  0.17660742  0.90075773    -0.52290
C1100       C  0.57153408  0.29796267  0.89946462     0.69740
O1101       O  0.60811585  0.29427746  0.90736275    -0.47140
C1102       C  0.62681491  0.20100370  0.84925244     0.74440
O1103       O  0.64187375  0.22934142  0.99332292    -0.59000
O1104       O  0.59347936  0.19922082  0.85549722    -0.49090
O1105       O  0.66967563  0.20426315  0.94856173    -0.55430
C1106       C  0.56952534  0.17158900  0.93950500     0.84620
O1107       O  0.55558721  0.26706368  0.90556830    -0.57330
O1108       O  0.65045150  0.22198484  0.87711583    -0.60620
C1109       C  0.58079413  0.10946664  0.97968132    -0.02360
C1110       C  0.55458476  0.13597696  0.95312460     0.07320
C1111       C  0.51527608  0.12669966  0.93824468    -0.02470
C1112       C  0.50273049  0.09201867  0.45266921    -0.02470
C1113       C  0.52608432  0.07327138  0.49152235     0.07460
C1114       C  0.56682653  0.08102755  0.50293189    -0.02670
Br1115     Br  0.60538141  0.05549126  0.54964825    -0.01220
Br1116     Br  0.63470937  0.10939318  0.97931705    -0.01290
Br1117     Br  0.96695842  0.06389783  0.40694251    -0.01250
Br1118     Br  0.47936685  0.15949892  0.89574466    -0.01230
C1119       C  0.75601092  0.14439484  0.54698181    -0.02360
C1120       C  0.73872846  0.12177881  0.57344863     0.07320
C1121       C  0.70415445  0.13530822  0.58167649    -0.02470
C1122       C  0.68351081  0.16739428  0.55794364    -0.02470
C1123       C  0.69721793  0.18559759  0.52470663     0.07460
C1124       C  0.73491745  0.17545036  0.52155956    -0.02670
Br1125     Br  0.75771960  0.20360711  0.98204074    -0.01220
Br1126     Br  0.80917851  0.13418497  0.54763020    -0.01290
Br1127     Br  0.63427062  0.18211867  0.56770374    -0.01250
Br1128     Br  0.68559721  0.10917609  0.62570630    -0.01230
C1129       C  0.92011153  0.01714819  0.60238306    -0.02360
C1130       C  0.88260411  0.03025342  0.57817463     0.07320
C1131       C  0.87765735  0.04355246  0.53429488    -0.02470
C1132       C  0.91029922  0.04776628  0.51765379    -0.02470
C1133       C  0.94685961  0.03040011  0.53998956     0.07460
C1134       C  0.94949561  0.01151977  0.58062416    -0.02670
Br1135     Br  0.98447433  0.96799206  0.59901605    -0.01220
Br1136     Br  0.93199389  0.00573359  0.66469239    -0.01290
Br1137     Br  0.90090978  0.07047266  0.45974457    -0.01250
Br1138     Br  0.82618947  0.05272016  0.49405957    -0.01230
C1139       C  0.85274554  0.84505929  0.60894997    -0.02360
C1140       C  0.82390400  0.82054127  0.58279824     0.07320
C1141       C  0.78419291  0.83262098  0.57362831    -0.02470
C1142       C  0.77452031  0.87044854  0.58538566    -0.02470
C1143       C  0.80419100  0.89709205  0.60445908     0.07460
C1144       C  0.84338432  0.88380894  0.61664179    -0.02670
Br1145     Br  0.88561939  0.91906931  0.63905384    -0.01220
Br1146     Br  0.90555965  0.82602364  0.63478183    -0.01290
Br1147     Br  0.72046801  0.88573546  0.57523651    -0.01250
Br1148     Br  0.74223607  0.79879401  0.54404945    -0.01230
C1149       C  0.94983020  0.98245783  0.95333710    -0.02360
C1150       C  0.98271198  0.99758946  0.98517815     0.07320
C1151       C  0.51931284  0.98701090  0.97953880    -0.02470
C1152       C  0.52324234  0.97347191  0.93872504    -0.02470
C1153       C  0.99038971  0.95896490  0.90625141     0.07460
C1154       C  0.95356663  0.96789600  0.91271153    -0.02670
Br1155     Br  0.91071000  0.97923242  0.86211425    -0.01220
Br1156     Br  0.90251235  0.96863043  0.96717823    -0.01290
Br1157     Br  0.57167202  0.98628618  0.92692415    -0.01250
Br1158     Br  0.56028467  0.97270434  0.53080173    -0.01230
C1159       C  0.89987900  0.82961507  0.88935381    -0.02360
C1160       C  0.92366213  0.81093943  0.92727979     0.07320
C1161       C  0.95952840  0.82729826  0.94959459    -0.02470
C1162       C  0.97165029  0.86205766  0.93428171    -0.02470
C1163       C  0.94941557  0.87972101  0.89414747     0.07460
C1164       C  0.91102872  0.86540507  0.87587252    -0.02670
Br1165     Br  0.87028023  0.89612792  0.83704783    -0.01220
Br1166     Br  0.85118149  0.80725838  0.85495363    -0.01290
Br1167     Br  0.01539283  0.88665244  0.97370757    -0.01250
Br1168     Br  0.99327054  0.80036344  0.00021474    -0.01230
C1169       C  0.78557481  0.87413219  0.91999807    -0.02360
C1170       C  0.77635393  0.83463997  0.90936519     0.07320
C1171       C  0.74710783  0.82596685  0.87015158    -0.02470
C1172       C  0.73021626  0.85586449  0.83981749    -0.02470
C1173       C  0.74216907  0.89506316  0.84883445     0.07460
C1174       C  0.77066856  0.90360798  0.88893033    -0.02670
Br1175     Br  0.79290771  0.95498514  0.90098874    -0.01220
Br1176     Br  0.81629973  0.88939002  0.97884539    -0.01290
Br1177     Br  0.69068529  0.84176815  0.78626182    -0.01250
Br1178     Br  0.72851143  0.77363406  0.85843968    -0.01230
C1179       C  0.56071298  0.91444806  0.85885598    -0.02360
C1180       C  0.52430231  0.93485485  0.84563308     0.07320
C1181       C  0.51843080  0.96120557  0.80966893    -0.02470
C1182       C  0.54523092  0.96255875  0.78389686    -0.02470
C1183       C  0.58172524  0.94379270  0.79850744     0.07460
C1184       C  0.58884575  0.91900700  0.83546525    -0.02670
Br1185     Br  0.63870774  0.89235209  0.85552205    -0.01220
Br1186     Br  0.57860901  0.88930614  0.91569895    -0.01290
Br1187     Br  0.53209436  0.98985821  0.72840321    -0.01250
Br1188     Br  0.48046772  0.00269163  0.80234200    -0.01230
C1189       C  0.60893302  0.15001651  0.79183282    -0.02360
C1190       C  0.63801745  0.17458191  0.81714125     0.07320
C1191       C  0.67758894  0.16451961  0.82202158    -0.02470
C1192       C  0.68734986  0.12736110  0.80862737    -0.02470
C1193       C  0.65786224  0.09964637  0.79288522     0.07460
C1194       C  0.61843452  0.11147573  0.78436705    -0.02670
Br1195     Br  0.57679177  0.07455258  0.76936121    -0.01220
Br1196     Br  0.55569649  0.16844365  0.76840428    -0.01290
Br1197     Br  0.74098896  0.11441508  0.81247704    -0.01250
Br1198     Br  0.71862136  0.20073558  0.84718427    -0.01230
C1199       C  0.90810531  0.84801384  0.76385894    -0.02360
C1200       C  0.91879411  0.80912685  0.77583075     0.07320
C1201       C  0.95697375  0.80151156  0.80285884    -0.02470
C1202       C  0.97888594  0.83169427  0.82773701    -0.02470
C1203       C  0.96538976  0.87082031  0.82159294     0.07460
C1204       C  0.93325112  0.87845965  0.78406724    -0.02670
Br1205     Br  0.91966949  0.93057772  0.76378677    -0.01220
Br1206     Br  0.85716982  0.86061318  0.72507638    -0.01290
Br1207     Br  0.02401797  0.81687336  0.87423924    -0.01250
Br1208     Br  0.97972508  0.74961445  0.80694908    -0.01230
C1209       C  0.95904193  0.63366559  0.63315142    -0.02360
C1210       C  0.94464309  0.59546956  0.62115371     0.07320
C1211       C  0.91263177  0.58277221  0.63574163    -0.02470
C1212       C  0.89634181  0.60717595  0.66205632    -0.02470
C1213       C  0.91425895  0.64250051  0.67797605     0.07460
C1214       C  0.94565509  0.65563930  0.66380043    -0.02670
Br1215     Br  0.97163526  0.70313292  0.68847719    -0.01220
Br1216     Br  0.99754732  0.65786630  0.61003516    -0.01290
Br1217     Br  0.84697036  0.59402506  0.67251021    -0.01250
Br1218     Br  0.88901464  0.53312530  0.61980882    -0.01230
C1219       C  0.94006384  0.64422722  0.50730482    -0.02360
C1220       C  0.90003268  0.64518643  0.50481231     0.07320
C1221       C  0.88191871  0.60981256  0.50807927    -0.02470
C1222       C  0.90525654  0.57667188  0.52424381    -0.02470
C1223       C  0.94623322  0.58026064  0.54235479     0.07460
C1224       C  0.96279502  0.61089431  0.52408861    -0.02670
Br1225     Br  0.01426802  0.60636610  0.01685774    -0.01220
Br1226     Br  0.96350610  0.68829930  0.98714595    -0.01290
Br1227     Br  0.88191752  0.52614740  0.51438986    -0.01250
Br1228     Br  0.82617090  0.60643607  0.49066839    -0.01230
C1229       C  0.74673810  0.63015007  0.66522522    -0.02360
C1230       C  0.76162189  0.66163344  0.64629756     0.07320
C1231       C  0.75940801  0.66003940  0.60062566    -0.02470
C1232       C  0.74416068  0.62720208  0.57499866    -0.02470
C1233       C  0.73504752  0.59372498  0.59571719     0.07460
C1234       C  0.73519921  0.59581580  0.64072567    -0.02670
Br1235     Br  0.71885600  0.55195523  0.66943750    -0.01220
Br1236     Br  0.74462370  0.63170123  0.72579958    -0.01290
Br1237     Br  0.73712490  0.62820409  0.51177340    -0.01250
Br1238     Br  0.77951227  0.70159154  0.57301395    -0.01230
C1239       C  0.55449968  0.50055759  0.53723414    -0.02360
C1240       C  0.58892617  0.52172857  0.55224582     0.07320
C1241       C  0.59029489  0.55186771  0.58243617    -0.02470
C1242       C  0.56045044  0.55666625  0.60341149    -0.02470
C1243       C  0.52465829  0.53591180  0.58884645     0.07260
C1244       C  0.52134154  0.51061780  0.55159890    -0.02670
Br1245     Br  0.47253901  0.49685853  0.51120676    -0.01220
Br1246     Br  0.55324815  0.45678933  0.49830553    -0.01290
Br1247     Br  0.57049841  0.59539580  0.64843264    -0.01250
Br1248     Br  0.63175437  0.58944027  0.59097007    -0.01230
C1249       C  0.50183487  0.12701087  0.55982874    -0.02360
C1250       C  0.51420962  0.08753608  0.56619031     0.07320
C1251       C  0.54444752  0.07868120  0.60523079    -0.02470
C1252       C  0.56627733  0.10853611  0.63146169    -0.02470
C1253       C  0.55575297  0.14777917  0.62285682     0.07460
C1254       C  0.52226644  0.15675088  0.58768317    -0.02670
Br1255     Br  0.50666118  0.21039182  0.57325310    -0.01220
Br1256     Br  0.45675332  0.14160622  0.51292845    -0.01290
Br1257     Br  0.61259234  0.09551706  0.67730479    -0.01250
Br1258     Br  0.55872261  0.02610022  0.62335031    -0.01230
C1259       C  0.68010715  0.31373383  0.57817472    -0.02360
C1260       C  0.64361542  0.31292577  0.58802754     0.07320
C1261       C  0.62169655  0.34801370  0.58508624    -0.02470
C1262       C  0.63942239  0.38321577  0.58167316    -0.02470
C1263       C  0.67394818  0.38378935  0.56889259     0.07460
C1264       C  0.69368596  0.34891886  0.56536037    -0.02670
Br1265     Br  0.73978116  0.34999621  0.54481046    -0.01220
Br1266     Br  0.71236856  0.26782861  0.58300682    -0.01290
Br1267     Br  0.61963463  0.43000289  0.60207376    -0.01250
Br1268     Br  0.56756592  0.35048872  0.58563255    -0.01230
C1269       C  0.50501055  0.51250004  0.73548380    -0.02360
C1270       C  0.98463401  0.47711133  0.73029247     0.07320
C1271       C  0.96440582  0.46648927  0.68686367    -0.02470
C1272       C  0.97165170  0.48493016  0.64973757    -0.02470
C1273       C  0.99093493  0.52145304  0.65347198     0.07460
C1274       C  0.50488102  0.53608608  0.69811851    -0.02670
Br1275     Br  0.51758103  0.58933412  0.71272091    -0.01220
Br1276     Br  0.53061058  0.53010652  0.79496418    -0.01290
Br1277     Br  0.95096264  0.45925028  0.59423422    -0.01250
Br1278     Br  0.91819346  0.43594441  0.67772020    -0.01230
C1279       C  0.57191958  0.36910850  0.72471138    -0.02360
C1280       C  0.55556547  0.33190106  0.71832340     0.07320
C1281       C  0.51712487  0.32647781  0.71900275    -0.02470
C1282       C  0.49564039  0.35781690  0.72918510    -0.02470
C1283       C  0.51359092  0.39434726  0.74288179     0.07460
C1284       C  0.55079192  0.40051080  0.73591438    -0.02670
Br1285     Br  0.57252795  0.45139091  0.73610830    -0.01220
Br1286     Br  0.62459462  0.37635176  0.72080777    -0.01290
Br1287     Br  0.44077088  0.34963400  0.71858329    -0.01250
Br1288     Br  0.49372648  0.27579207  0.70478211    -0.01230
C1289       C  0.49025758  0.36592352  0.83275402    -0.02360
C1290       C  0.51320570  0.39589543  0.82233786     0.07320
C1291       C  0.55263846  0.39808152  0.84870455    -0.02470
C1292       C  0.56893855  0.36908484  0.88027484    -0.02470
C1293       C  0.54903722  0.33419476  0.88070130     0.07460
C1294       C  0.50838237  0.33391521  0.85916489    -0.02670
Br1295     Br  0.47647965  0.29011488  0.86423108    -0.01220
Br1296     Br  0.93407060  0.36959950  0.81540742    -0.01290
Br1297     Br  0.61658156  0.37878356  0.92606976    -0.01250
Br1298     Br  0.58532495  0.44087967  0.84371747    -0.01230
C1299       C  0.71196870  0.34379836  0.83503766    -0.02360
C1300       C  0.74602762  0.35629535  0.82562312     0.07320
C1301       C  0.76168627  0.33442908  0.79657253    -0.02470
C1302       C  0.74205672  0.30124362  0.77507488    -0.02470
C1303       C  0.70546794  0.29060167  0.78098010     0.07460
C1304       C  0.69116244  0.31181352  0.81234029    -0.02670
Br1305     Br  0.64096373  0.30153537  0.82141809    -0.01220
Br1306     Br  0.69336553  0.37228811  0.87824699    -0.01290
Br1307     Br  0.76551895  0.27116402  0.73689340    -0.01250
Br1308     Br  0.80910718  0.35142563  0.78468515    -0.01230
C1309       C  0.92055503  0.48894096  0.77959343    -0.02360
C1310       C  0.95612282  0.46876037  0.79899847     0.07320
C1311       C  0.96227178  0.45873753  0.84404937    -0.02470
C1312       C  0.93044917  0.45297262  0.86176042    -0.02470
C1313       C  0.89233220  0.46372295  0.83680444     0.07460
C1314       C  0.88856964  0.48561418  0.79756381    -0.02670
Br1315     Br  0.84119005  0.51499067  0.76996701    -0.01220
Br1316     Br  0.91788866  0.53015534  0.73780127    -0.01290
Br1317     Br  0.94040860  0.42795390  0.91878039    -0.01250
Br1318     Br  0.01139738  0.47003818  0.88512828    -0.01230
C1319       C  0.85287926  0.58647942  0.87901507    -0.02360
C1320       C  0.81332359  0.57606882  0.87116343     0.07320
C1321       C  0.78397378  0.60469356  0.85663387    -0.02470
C1322       C  0.79357437  0.64145837  0.84330550    -0.02470
C1323       C  0.83222556  0.64868689  0.84254282     0.07460
C1324       C  0.86219077  0.62310983  0.86552536    -0.02670
Br1325     Br  0.91620607  0.63781333  0.87717637    -0.01220
Br1326     Br  0.89483813  0.54980762  0.90315214    -0.01290
Br1327     Br  0.75367728  0.68100882  0.82583900    -0.01250
Br1328     Br  0.73073014  0.59334781  0.85469560    -0.01230
loop_ 
_geom_bond_atom_site_label_1 
_geom_bond_atom_site_label_2 
_geom_bond_distance 
_geom_bond_site_symmetry_2 
_ccdc_geom_bond_type 
In1           O3   2.221       .  S
In1           O4   2.237       .  S
In1          O12   2.239       .  S
In1           O6   2.232       .  S
In1           O8   2.232       .  S
In1           O9   2.252       .  S
In1          O10   2.201       .  S
In1          O13   2.195       .  S
C2            O8   1.276       .  A
C2           O10   1.266       .  A
C2          C324   1.478       .  S
O3           C11   1.267       .  A
O4           C11   1.275       .  A
C5           O12   1.270       .  A
C5            O6   1.272       .  A
C5          C304   1.482       .  S
C7            O9   1.276       .  A
C7           O13   1.265       .  A
C7          C317   1.498       .  S
C11          C35   1.471       .  S
C14         C274   1.530       .  S
C14         C314   1.545       .  S
C14         C679   1.398       .  D
C15         C287   1.516       .  S
C15         C294   1.522       .  S
C15         C678   1.398   1_455  D
In16         O18   2.244       .  S
In16         O19   2.209       .  S
In16         O27   2.233       .  S
In16         O21   2.289       .  S
In16         O23   2.274       .  S
In16         O24   2.200       .  S
In16         O25   2.234       .  S
In16         O28   2.245       .  S
C17          O23   1.265       .  A
C17          O25   1.257       .  A
C17         C307   1.502       .  S
O18          C26   1.263       .  A
O19          C26   1.260       .  A
C20          O27   1.251       .  A
C20          O21   1.267       .  A
C20         C257   1.498       .  S
C22          O24   1.252       .  A
C22          O28   1.263       .  A
C22         C284   1.457       .  S
C26         C264   1.481       .  S
In29         O31   2.191       .  S
In29         O40   2.229       .  S
In29         O34   2.232       .  S
In29         O36   2.240       .  S
In29        O364   2.277       .  S
In29        O369   2.250   1_554  S
In29        O370   2.195       .  S
In29        O373   2.238       .  S
C30          O36   1.267       .  A
C30         O370   1.261       .  A
C30         C267   1.459       .  S
O31          C39   1.261       .  A
O32        In361   2.277       .  S
O32         C371   1.273       .  A
C33          O40   1.265       .  A
C33          O34   1.267       .  A
C33         C237   1.485       .  S
C35          O37   1.269       .  A
C35          O41   1.262       .  A
O37        In361   2.250       .  S
O38        In361   2.195       .  S
O38         C362   1.261       .  A
C39         O364   1.273       .  A
C39         C244   1.480       .  S
O41        In361   2.238       .  S
C42         C277   1.564       .  S
C42         C911   1.539       .  S
C42          C43   1.392       .  D
C43         C214   1.505       .  S
C43         C227   1.528       .  S
In44         O46   2.209       .  S
In44         O47   2.230       .  S
In44         O55   2.204       .  S
In44         O49   2.287       .  S
In44         O51   2.275       .  S
In44         O52   2.191       .  S
In44         O53   2.227       .  S
In44         O56   2.261       .  S
C45          O51   1.263       .  A
C45          O53   1.252       .  A
C45         C234   1.491       .  S
O46          C54   1.260       .  A
O47          C54   1.260       .  A
C48          O55   1.253       .  A
C48          O49   1.264       .  A
C48         C204   1.493       .  S
C50          O52   1.263       .  A
C50          O56   1.270       .  A
C50         C327   1.485       .  S
C54         C217   1.459       .  S
In57         O59   2.244   1_565  S
In57         O60   2.271       .  S
In57         O68   2.242       .  S
In57         O62   2.211       .  S
In57         O64   2.246   1_565  S
In57         O65   2.299       .  S
In57         O66   2.208   1_565  S
In57         O69   2.203       .  S
C58          O64   1.266       .  A
C58          O66   1.263       .  A
C58         C197   1.483       .  S
O59          C67   1.262   1_545  A
O60          C67   1.272       .  A
C61          O68   1.264       .  A
C61          O62   1.264       .  A
C61         C177   1.493       .  S
C63          O65   1.273       .  A
C63          O69   1.259       .  A
C63         C187   1.489       .  S
C67          C91   1.482   1_565  S
C70         C167   1.527       .  S
C70         C207   1.521       .  S
C70          C71   1.397       .  D
C71         C157   1.535       .  S
C71         C848   1.522       .  S
In72         O77   2.280       .  S
In72         O79   2.295       .  S
In72         O80   2.204       .  S
In72         O81   2.171       .  S
In72         O84   2.228       .  S
In72        O406   2.242       .  S
In72        O407   2.208       .  S
In72        O415   2.208       .  S
C73          O79   1.275       .  A
C73          O81   1.252       .  A
C73         C174   1.491       .  S
O74        In404   2.242   1_554  S
O74          C82   1.263       .  A
O75        In404   2.208   1_554  S
O75          C82   1.263       .  A
C76          O83   1.260       .  A
C76         O409   1.269   1_554  A
C76         C224   1.483       .  S
O77         C408   1.269       .  A
C78          O80   1.264       .  A
C78          O84   1.264       .  A
C78         C164   1.470       .  S
C82         C144   1.496       .  S
O83        In404   2.208   1_554  S
In85         O87   2.195       .  S
In85         O88   2.268       .  S
In85         O96   2.248       .  S
In85         O90   2.245       .  S
In85         O92   2.244   1_545  S
In85         O93   2.250       .  S
In85         O94   2.219   1_545  S
In85         O97   2.243   1_545  S
C86          O92   1.275       .  A
C86          O94   1.269       .  A
C86         C147   1.492       .  S
O87          C95   1.265       .  A
O88          C95   1.277       .  A
C89          O96   1.267       .  A
C89          O90   1.273       .  A
C89         C124   1.487       .  S
C91          O93   1.275       .  A
C91          O97   1.267   1_545  A
C95         C134   1.499       .  S
C98         C781   1.523   1_554  S
C98         C918   1.527       .  S
C98          C99   1.396       .  D
C99         C137   1.520       .  S
C99         C486   1.539   1_544  S
In100       O102   2.221       .  S
In100       O103   2.235       .  S
In100       O111   2.249       .  S
In100       O105   2.279       .  S
In100       O107   2.274       .  S
In100       O108   2.196       .  S
In100       O109   2.245       .  S
In100       O112   2.256       .  S
C101        O107   1.264       .  A
C101        O109   1.258       .  A
C101        C459   1.497       .  S
O102        C110   1.259       .  A
O103        C110   1.257       .  A
C104        O111   1.252       .  A
C104        O105   1.264       .  A
C104        C297   1.503       .  S
C106        O108   1.260       .  A
C106        O112   1.265       .  A
C106        C194   1.486       .  S
C110        C114   1.454       .  S
C113        C114   1.397       .  A
C113        C450   1.400       .  A
C113       Br120   1.927       .  S
C114        C115   1.391       .  A
C115        C448   1.400       .  A
C115       Br122   1.928   1_455  S
C116        C117   1.423       .  A
C116        C447   1.400       .  A
C116       Br785   1.905   1_455  S
C117        C762   1.523   1_556  S
C117        C118   1.426   1_556  A
C118        C445   1.400   1_554  A
C118       Br119   1.916       .  S
Br121       C780   1.905       .  S
C123        C124   1.407       .  A
C123        C128   1.412       .  A
C123       Br130   1.919       .  S
C124        C125   1.402       .  A
C125        C126   1.412       .  A
C125       Br132   1.921       .  S
C126        C127   1.420       .  A
C126       Br131   1.926       .  S
C127        C433   1.497   1_554  S
C127        C128   1.415       .  A
C128       Br461   1.930   1_554  S
Br129       C460   1.930       .  S
C133        C134   1.412       .  A
C133        C138   1.412       .  A
C133       Br140   1.924       .  S
C134        C135   1.417       .  A
C135        C136   1.412       .  A
C135       Br142   1.941   1_554  S
C136        C137   1.423       .  A
C136       Br141   1.922   1_554  S
C137        C138   1.413       .  A
C138       Br139   1.920   1_545  S
C143        C144   1.412       .  A
C143        C148   1.405       .  A
C143       Br150   1.939       .  S
C144        C145   1.422       .  A
C145        C146   1.415       .  A
C145       Br152   1.930       .  S
C146        C147   1.410       .  A
C146       Br151   1.931       .  S
C147        C148   1.413       .  A
C148       Br149   1.921       .  S
C153        C154   1.417       .  A
C153        C158   1.408       .  A
C153       Br160   1.923       .  S
C154        C431   1.539   1_565  S
C154        C819   1.409       .  A
C155        C156   1.404       .  A
C155        C818   1.409   1_455  A
C155       Br494   1.911       .  S
C156        C821   1.418   1_455  A
C156       Br161   1.922       .  S
C157        C158   1.414       .  A
C157        C820   1.418       .  A
C158       Br159   1.911       .  S
Br162       C487   1.911   1_554  S
C163        C164   1.407       .  A
C163        C168   1.401       .  A
C163       Br170   1.940       .  S
C164        C165   1.401       .  A
C165        C166   1.408       .  A
C165       Br172   1.937       .  S
C166        C167   1.423       .  A
C166       Br171   1.908       .  S
C167        C168   1.424       .  A
C168       Br169   1.923       .  S
C173        C174   1.418       .  A
C173        C178   1.402       .  A
C173       Br180   1.943       .  S
C174        C175   1.409       .  A
C175        C176   1.414       .  A
C175       Br182   1.925       .  S
C176        C177   1.423       .  A
C176       Br181   1.936       .  S
C177        C178   1.414       .  A
C178       Br179   1.939       .  S
C183        C184   1.425       .  A
C183        C188   1.409       .  A
C183       Br190   1.925       .  S
C184        C735   1.522   1_455  S
C184        C185   1.418       .  A
C185        C186   1.415       .  A
C185       Br192   1.923   1_465  S
C186        C187   1.404       .  A
C186       Br191   1.919       .  S
C187        C188   1.406       .  A
C188       Br189   1.934       .  S
C193        C194   1.408       .  A
C193        C198   1.398       .  A
C193       Br200   1.935       .  S
C194        C195   1.415       .  A
C195        C196   1.413       .  A
C195       Br202   1.928       .  S
C196        C197   1.412       .  A
C196       Br201   1.930       .  S
C197        C198   1.412       .  A
C198       Br199   1.924       .  S
C203        C204   1.409       .  A
C203        C208   1.417       .  A
C203       Br210   1.931       .  S
C204        C205   1.412       .  A
C205        C206   1.405       .  A
C205       Br212   1.940       .  S
C206        C207   1.418       .  A
C206       Br211   1.914       .  S
C207        C208   1.420       .  A
C208       Br209   1.915       .  S
C213        C214   1.428       .  A
C213        C218   1.402       .  A
C213       Br220   1.923       .  S
C214        C215   1.418       .  A
C215        C216   1.405       .  A
C215       Br222   1.917       .  S
C216        C217   1.405       .  A
C216       Br221   1.939       .  S
C217        C218   1.396       .  A
C218       Br219   1.939       .  S
C223        C224   1.409       .  A
C223        C228   1.411       .  A
C223       Br562   1.932   1_554  S
C224        C225   1.403       .  A
C225        C226   1.412       .  A
C225       Br232   1.916   1_554  S
C226        C227   1.421       .  A
C226       Br231   1.923       .  S
C227        C228   1.413       .  A
C228       Br561   1.916       .  S
Br229       C560   1.916       .  S
Br230       C555   1.932       .  S
C233        C234   1.415       .  A
C233        C238   1.409       .  A
C233       Br240   1.925       .  S
C234        C235   1.415       .  A
C235        C236   1.409       .  A
C235       Br242   1.921       .  S
C236        C237   1.410       .  A
C236       Br241   1.931       .  S
C237        C238   1.413       .  A
C238       Br239   1.938       .  S
C243        C244   1.400       .  A
C243        C248   1.417       .  A
C243       Br250   1.928   1_554  S
C244        C245   1.394       .  A
C245        C246   1.407       .  A
C245       Br252   1.939       .  S
C246        C247   1.431       .  A
C246       Br251   1.902       .  S
C247        C706   1.539   1_455  S
C247        C248   1.434       .  A
C248       Br249   1.912   1_455  S
C253        C254   1.419       .  A
C253        C258   1.415       .  A
C253       Br260   1.917   1_455  S
C254        C762   1.527       .  S
C254        C255   1.421       .  A
C255        C256   1.413       .  A
C255       Br262   1.917       .  S
C256        C257   1.403       .  A
C256       Br261   1.915       .  S
C257        C258   1.415       .  A
C258       Br259   1.938       .  S
C263        C264   1.420       .  A
C263        C268   1.410       .  A
C263       Br270   1.922       .  S
C264        C265   1.418       .  A
C265        C266   1.392       .  A
C265       Br272   1.937       .  S
C266        C267   1.398       .  A
C266       Br271   1.926       .  S
C267        C268   1.402       .  A
C268       Br269   1.927       .  S
C273        C278   1.428       .  A
C273        C938   1.412   1_455  A
C273       Br280   1.936       .  S
C274        C275   1.404       .  A
C274        C937   1.412       .  A
C275        C276   1.416       .  A
C275       Br282   1.920       .  S
C276        C277   1.429       .  A
C276       Br281   1.911       .  S
C277        C942   1.442       .  A
C278        C941   1.442   1_455  A
C278       Br279   1.915       .  S
C283        C284   1.404       .  A
C283        C288   1.407       .  A
C283       Br290   1.937       .  S
C284        C285   1.393       .  A
C285        C286   1.401   1_455  A
C285       Br292   1.939   1_455  S
C286        C287   1.428   1_655  A
C286       Br291   1.917       .  S
C287        C288   1.423       .  A
C288       Br289   1.923       .  S
C293        C294   1.419   1_655  A
C293        C298   1.417   1_655  A
C293       Br964   1.928       .  S
C294        C295   1.423       .  A
C295        C296   1.410       .  A
C295       Br302   1.924       .  S
C296        C297   1.404       .  A
C296       Br301   1.929       .  S
C297        C298   1.420       .  A
C298       Br299   1.934   1_455  S
Br300       C957   1.928       .  S
C303        C304   1.401       .  A
C303        C308   1.411       .  A
C303       Br310   1.927       .  S
C304        C305   1.406       .  A
C305        C306   1.415       .  A
C305       Br312   1.930       .  S
C306        C307   1.422       .  A
C306       Br311   1.932       .  S
C307        C308   1.423       .  A
C308       Br309   1.928       .  S
C313        C314   1.419       .  A
C313        C318   1.413       .  A
C313       Br320   1.919       .  S
C314        C315   1.413       .  A
C315        C316   1.413       .  A
C315       Br322   1.910       .  S
C316        C317   1.413       .  A
C316       Br321   1.929       .  S
C317        C318   1.420       .  A
C318       Br319   1.943       .  S
C323        C324   1.415       .  A
C323        C328   1.404       .  A
C323       Br330   1.932       .  S
C324        C325   1.408       .  A
C325        C326   1.409       .  A
C325       Br332   1.929       .  S
C326        C327   1.411       .  A
C326       Br331   1.923       .  S
C327        C328   1.410       .  A
C328       Br329   1.933       .  S
In333       O335   2.220       .  S
In333       O336   2.237       .  S
In333       O344   2.239       .  S
In333       O338   2.232       .  S
In333       O340   2.232       .  S
In333       O341   2.252       .  S
In333       O342   2.201       .  S
In333       O345   2.195       .  S
C334        O340   1.276       .  A
C334        O342   1.266       .  A
C334        C656   1.478       .  S
O335        C343   1.267       .  A
O336        C343   1.275       .  A
C337        O344   1.270       .  A
C337        O338   1.272       .  A
C337        C636   1.482       .  S
C339        O341   1.276       .  A
C339        O345   1.265       .  A
C339        C649   1.498       .  S
C343        C367   1.471       .  S
C346        C606   1.529       .  S
C346        C646   1.545       .  S
C346       C1011   1.398       .  D
C347        C619   1.516       .  S
C347        C626   1.522       .  S
C347       C1010   1.398   1_455  D
In348       O350   2.244       .  S
In348       O351   2.209       .  S
In348       O359   2.232       .  S
In348       O353   2.289       .  S
In348       O355   2.274       .  S
In348       O356   2.200       .  S
In348       O357   2.234       .  S
In348       O360   2.245       .  S
C349        O355   1.265       .  A
C349        O357   1.257       .  A
C349        C639   1.502       .  S
O350        C358   1.263       .  A
O351        C358   1.260       .  A
C352        O359   1.251       .  A
C352        O353   1.267       .  A
C352        C589   1.498       .  S
C354        O356   1.253       .  A
C354        O360   1.263       .  A
C354        C616   1.457       .  S
C358        C596   1.481       .  S
In361       O363   2.191       .  S
In361       O372   2.229       .  S
In361       O366   2.232       .  S
In361       O368   2.240       .  S
C362        O368   1.267       .  A
C362        C599   1.459       .  S
O363        C371   1.261       .  A
C365        O372   1.265       .  A
C365        O366   1.267       .  A
C365        C569   1.485       .  S
C367        O369   1.269       .  A
C367        O373   1.262   1_556  A
C371        C576   1.480       .  S
C374       C1243   1.539       .  S
C374        C609   1.564       .  S
C374        C375   1.392       .  D
C375        C546   1.505       .  S
C375        C559   1.528       .  S
In376       O378   2.210       .  S
In376       O379   2.230       .  S
In376       O387   2.204       .  S
In376       O381   2.287       .  S
In376       O383   2.275       .  S
In376       O384   2.191       .  S
In376       O385   2.227       .  S
In376       O388   2.261       .  S
C377        O383   1.263       .  A
C377        O385   1.252       .  A
C377        C566   1.491       .  S
O378        C386   1.260       .  A
O379        C386   1.260       .  A
C380        O387   1.253       .  A
C380        O381   1.264       .  A
C380        C536   1.493       .  S
C382        O384   1.263       .  A
C382        O388   1.270       .  A
C382        C659   1.485       .  S
C386        C549   1.459       .  S
In389       O391   2.244   1_565  S
In389       O392   2.271       .  S
In389       O400   2.242       .  S
In389       O394   2.210       .  S
In389       O396   2.246   1_565  S
In389       O397   2.299       .  S
In389       O398   2.208   1_565  S
In389       O401   2.203       .  S
C390        O396   1.266       .  A
C390        O398   1.263       .  A
C390        C529   1.483       .  S
O391        C399   1.262   1_545  A
O392        C399   1.272       .  A
C393        O400   1.264       .  A
C393        O394   1.264       .  A
C393        C509   1.493       .  S
C395        O397   1.273       .  A
C395        O401   1.259       .  A
C395        C519   1.489       .  S
C399        C423   1.482   1_565  S
C402        C499   1.527       .  S
C402        C539   1.521       .  S
C402        C403   1.397       .  D
C403        C489   1.535       .  S
C403       C1180   1.522       .  S
In404       O409   2.280       .  S
In404       O411   2.295       .  S
In404       O412   2.204       .  S
In404       O413   2.171       .  S
In404       O416   2.229       .  S
C405        O411   1.275       .  A
C405        O413   1.252       .  A
C405        C506   1.491       .  S
O406        C414   1.263       .  A
O407        C414   1.263       .  A
C408        O415   1.260       .  A
C408        C556   1.483       .  S
C410        O412   1.264       .  A
C410        O416   1.264       .  A
C410        C496   1.470       .  S
C414        C476   1.496       .  S
In417       O419   2.195       .  S
In417       O420   2.268       .  S
In417       O428   2.248       .  S
In417       O422   2.245       .  S
In417       O424   2.244   1_545  S
In417       O425   2.250       .  S
In417       O426   2.219   1_545  S
In417       O429   2.243   1_545  S
C418        O424   1.275       .  A
C418        O426   1.269       .  A
C418        C479   1.492       .  S
O419        C427   1.265       .  A
O420        C427   1.277       .  A
C421        O428   1.267       .  A
C421        O422   1.273       .  A
C421        C456   1.487       .  S
C423        O425   1.275       .  A
C423        O429   1.267   1_545  A
C427        C466   1.499       .  S
C430       C1113   1.523       .  S
C430       C1250   1.527       .  S
C430        C431   1.396       .  D
C431        C469   1.520       .  S
In432       O434   2.221       .  S
In432       O435   2.235       .  S
In432       O443   2.249       .  S
In432       O437   2.279       .  S
In432       O439   2.274       .  S
In432       O440   2.196       .  S
In432       O441   2.245       .  S
In432       O444   2.256       .  S
C433        O439   1.264       .  A
C433        O441   1.258       .  A
O434        C442   1.259       .  A
O435        C442   1.257       .  A
C436        O443   1.252       .  A
C436        O437   1.264       .  A
C436        C629   1.503       .  S
C438        O440   1.260       .  A
C438        O444   1.265       .  A
C438        C526   1.486       .  S
C442        C446   1.454       .  S
C445        C446   1.397       .  A
C445       Br452   1.927       .  S
C446        C447   1.391       .  A
C447       Br454   1.928   1_455  S
C448        C449   1.423       .  A
C448      Br1117   1.905   1_455  S
C449       C1094   1.523       .  S
C449        C450   1.426       .  A
C450       Br451   1.916       .  S
Br453      C1112   1.905       .  S
C455        C456   1.407       .  A
C455        C460   1.412       .  A
C455       Br462   1.919       .  S
C456        C457   1.402       .  A
C457        C458   1.412       .  A
C457       Br464   1.921       .  S
C458        C459   1.420       .  A
C458       Br463   1.926       .  S
C459        C460   1.415       .  A
C465        C466   1.412       .  A
C465        C470   1.412       .  A
C465       Br472   1.924       .  S
C466        C467   1.416       .  A
C467        C468   1.412       .  A
C467       Br474   1.941       .  S
C468        C469   1.423       .  A
C468       Br473   1.922       .  S
C469        C470   1.413       .  A
C470       Br471   1.920   1_545  S
C475        C476   1.412       .  A
C475        C480   1.405       .  A
C475       Br482   1.939       .  S
C476        C477   1.422       .  A
C477        C478   1.415       .  A
C477       Br484   1.930       .  S
C478        C479   1.410       .  A
C478       Br483   1.931       .  S
C479        C480   1.413       .  A
C480       Br481   1.921       .  S
C485        C486   1.417       .  A
C485        C490   1.408       .  A
C485       Br492   1.923       .  S
C486       C1151   1.409       .  A
C487       C1150   1.409   1_455  A
C487        C488   1.404       .  A
C488       C1153   1.418   1_455  A
C488       Br493   1.922       .  S
C489       C1152   1.418       .  A
C489        C490   1.414       .  A
C490       Br491   1.911       .  S
C495        C496   1.407       .  A
C495        C500   1.401       .  A
C495       Br502   1.940       .  S
C496        C497   1.401       .  A
C497        C498   1.408       .  A
C497       Br504   1.937   1_556  S
C498        C499   1.423       .  A
C498       Br503   1.907       .  S
C499        C500   1.424       .  A
C500       Br501   1.923       .  S
C505        C506   1.418       .  A
C505        C510   1.402       .  A
C505       Br512   1.943       .  S
C506        C507   1.409       .  A
C507        C508   1.414       .  A
C507       Br514   1.925       .  S
C508        C509   1.423       .  A
C508       Br513   1.936       .  S
C509        C510   1.414       .  A
C510       Br511   1.939       .  S
C515        C516   1.425       .  A
C515        C520   1.409       .  A
C515       Br522   1.925       .  S
C516       C1067   1.522   1_455  S
C516        C517   1.418       .  A
C517        C518   1.415       .  A
C517       Br524   1.923   1_465  S
C518        C519   1.404       .  A
C518       Br523   1.920       .  S
C519        C520   1.406       .  A
C520       Br521   1.934       .  S
C525        C526   1.408       .  A
C525        C530   1.398       .  A
C525       Br532   1.935       .  S
C526        C527   1.416       .  A
C527        C528   1.413       .  A
C527       Br534   1.928       .  S
C528        C529   1.412       .  A
C528       Br533   1.930       .  S
C529        C530   1.412       .  A
C530       Br531   1.924       .  S
C535        C536   1.409       .  A
C535        C540   1.417       .  A
C535       Br542   1.931       .  S
C536        C537   1.412       .  A
C537        C538   1.405       .  A
C537       Br544   1.940       .  S
C538        C539   1.418       .  A
C538       Br543   1.914       .  S
C539        C540   1.420       .  A
C540       Br541   1.915       .  S
C545        C546   1.428       .  A
C545        C550   1.402       .  A
C545       Br552   1.923       .  S
C546        C547   1.418       .  A
C547        C548   1.405       .  A
C547       Br554   1.917       .  S
C548        C549   1.405       .  A
C548       Br553   1.939       .  S
C549        C550   1.396       .  A
C550       Br551   1.939       .  S
C555        C556   1.409       .  A
C555        C560   1.411       .  A
C556        C557   1.403       .  A
C557        C558   1.412       .  A
C557       Br564   1.916       .  S
C558        C559   1.421       .  A
C558       Br563   1.923       .  S
C559        C560   1.413       .  A
C565        C566   1.415       .  A
C565        C570   1.409       .  A
C565       Br572   1.925       .  S
C566        C567   1.415       .  A
C567        C568   1.409       .  A
C567       Br574   1.921       .  S
C568        C569   1.410       .  A
C568       Br573   1.931       .  S
C569        C570   1.413       .  A
C570       Br571   1.938       .  S
C575        C576   1.400       .  A
C575        C580   1.417       .  A
C575       Br582   1.928       .  S
C576        C577   1.394       .  A
C577        C578   1.407       .  A
C577       Br584   1.939       .  S
C578        C579   1.431       .  A
C578       Br583   1.902       .  S
C579       C1038   1.539   1_455  S
C579        C580   1.434       .  A
C580       Br581   1.912   1_455  S
C585        C586   1.419       .  A
C585        C590   1.415       .  A
C585       Br592   1.917   1_455  S
C586       C1094   1.527       .  S
C586        C587   1.421       .  A
C587        C588   1.413       .  A
C587       Br594   1.917       .  S
C588        C589   1.403       .  A
C588       Br593   1.915       .  S
C589        C590   1.415       .  A
C590       Br591   1.938       .  S
C595        C596   1.420       .  A
C595        C600   1.410       .  A
C595       Br602   1.922       .  S
C596        C597   1.418       .  A
C597        C598   1.392       .  A
C597       Br604   1.937       .  S
C598        C599   1.398       .  A
C598       Br603   1.926       .  S
C599        C600   1.402       .  A
C600       Br601   1.927       .  S
C605       C1270   1.412   1_455  A
C605        C610   1.428       .  A
C605       Br612   1.936       .  S
C606       C1269   1.412       .  A
C606        C607   1.404       .  A
C607        C608   1.416       .  A
C607       Br614   1.920       .  S
C608        C609   1.429       .  A
C608       Br613   1.911       .  S
C609       C1274   1.442       .  A
C610       C1273   1.442   1_455  A
C610       Br611   1.915       .  S
C615        C616   1.404       .  A
C615        C620   1.407       .  A
C615       Br622   1.937       .  S
C616        C617   1.393       .  A
C617        C618   1.401   1_455  A
C617       Br624   1.939   1_455  S
C618        C619   1.428   1_655  A
C618       Br623   1.917       .  S
C619        C620   1.423       .  A
C620       Br621   1.923       .  S
C625        C626   1.419   1_655  A
C625        C630   1.417   1_655  A
C625      Br1296   1.928       .  S
C626        C627   1.423       .  A
C627        C628   1.410       .  A
C627       Br634   1.924       .  S
C628        C629   1.404       .  A
C628       Br633   1.929       .  S
C629        C630   1.420       .  A
C630       Br631   1.934   1_455  S
Br632      C1289   1.928       .  S
C635        C636   1.401       .  A
C635        C640   1.411       .  A
C635       Br642   1.927       .  S
C636        C637   1.406       .  A
C637        C638   1.415       .  A
C637       Br644   1.930       .  S
C638        C639   1.422       .  A
C638       Br643   1.932       .  S
C639        C640   1.423       .  A
C640       Br641   1.928       .  S
C645        C646   1.419       .  A
C645        C650   1.413       .  A
C645       Br652   1.919       .  S
C646        C647   1.413       .  A
C647        C648   1.413       .  A
C647       Br654   1.910       .  S
C648        C649   1.413       .  A
C648       Br653   1.929       .  S
C649        C650   1.420       .  A
C650       Br651   1.943       .  S
C655        C656   1.415       .  A
C655        C660   1.404       .  A
C655       Br662   1.932       .  S
C656        C657   1.408       .  A
C657        C658   1.409       .  A
C657       Br664   1.929       .  S
C658        C659   1.411       .  A
C658       Br663   1.923       .  S
C659        C660   1.410       .  A
C660       Br661   1.933       .  S
In665       O667   2.221       .  S
In665       O668   2.237       .  S
In665       O676   2.239       .  S
In665       O670   2.232       .  S
In665       O672   2.232       .  S
In665       O673   2.252       .  S
In665       O674   2.201       .  S
In665       O677   2.195       .  S
C666        O672   1.276       .  A
C666        O674   1.266       .  A
C666        C988   1.478       .  S
O667        C675   1.267       .  A
O668        C675   1.275       .  A
C669        O676   1.270       .  A
C669        O670   1.272       .  A
C669        C968   1.482       .  S
C671        O673   1.276       .  A
C671        O677   1.265       .  A
C671        C981   1.498       .  S
C675        C699   1.471       .  S
C678        C938   1.530       .  S
C678        C978   1.545       .  S
C679        C951   1.516       .  S
C679        C958   1.522       .  S
In680       O682   2.244       .  S
In680       O683   2.209       .  S
In680       O691   2.233       .  S
In680       O685   2.289       .  S
In680       O687   2.274       .  S
In680       O688   2.200       .  S
In680       O689   2.234       .  S
In680       O692   2.245       .  S
C681        O687   1.265       .  A
C681        O689   1.257       .  A
C681        C971   1.502       .  S
O682        C690   1.263       .  A
O683        C690   1.260       .  A
C684        O691   1.251       .  A
C684        O685   1.267       .  A
C684        C921   1.498       .  S
C686        O688   1.252       .  A
C686        O692   1.263       .  A
C686        C948   1.457       .  S
C690        C928   1.481       .  S
In693       O695   2.191       .  S
In693      O1028   2.277       .  S
In693       O704   2.229       .  S
In693       O698   2.232       .  S
In693       O700   2.240       .  S
In693      O1033   2.250   1_554  S
In693      O1034   2.195       .  S
In693      O1037   2.238       .  S
C694        O700   1.267       .  A
C694       O1034   1.261       .  A
C694        C931   1.459       .  S
O695        C703   1.261       .  A
O696      In1025   2.277       .  S
O696       C1035   1.273       .  A
C697        O704   1.265       .  A
C697        O698   1.267       .  A
C697        C901   1.485       .  S
C699        O701   1.269       .  A
C699        O705   1.262       .  A
O701      In1025   2.250       .  S
O702      In1025   2.195       .  S
O702       C1026   1.261       .  A
C703       O1028   1.273       .  A
C703        C908   1.480       .  S
O705      In1025   2.238       .  S
C706        C941   1.564       .  S
C706        C707   1.392       .  D
C707        C878   1.505       .  S
C707        C891   1.528       .  S
In708       O710   2.209       .  S
In708       O711   2.230       .  S
In708       O719   2.204       .  S
In708       O713   2.287       .  S
In708       O715   2.275       .  S
In708       O716   2.191       .  S
In708       O717   2.227       .  S
In708       O720   2.261       .  S
C709        O715   1.263       .  A
C709        O717   1.252       .  A
C709        C898   1.491       .  S
O710        C718   1.260       .  A
O711        C718   1.260       .  A
C712        O719   1.253       .  A
C712        O713   1.264       .  A
C712        C868   1.493       .  S
C714        O716   1.263       .  A
C714        O720   1.270       .  A
C714        C991   1.485       .  S
C718        C881   1.459       .  S
In721       O723   2.244   1_565  S
In721       O724   2.271       .  S
In721       O732   2.242       .  S
In721       O726   2.211       .  S
In721       O728   2.246   1_565  S
In721       O729   2.299       .  S
In721       O730   2.208   1_565  S
In721       O733   2.203       .  S
C722        O728   1.266       .  A
C722        O730   1.263       .  A
C722        C861   1.483       .  S
O723        C731   1.262   1_545  A
O724        C731   1.272       .  A
C725        O732   1.264       .  A
C725        O726   1.264       .  A
C725        C841   1.493       .  S
C727        O729   1.273       .  A
C727        O733   1.259       .  A
C727        C851   1.489       .  S
C731        C755   1.482   1_565  S
C734        C831   1.527       .  S
C734        C871   1.521       .  S
C734        C735   1.397       .  D
C735        C821   1.535       .  S
In736      O1070   2.242       .  S
In736      O1071   2.208       .  S
In736      O1079   2.208       .  S
In736       O741   2.280       .  S
In736       O743   2.295       .  S
In736       O744   2.204       .  S
In736       O745   2.171       .  S
In736       O748   2.228       .  S
C737        O743   1.275       .  A
C737        O745   1.252       .  A
C737        C838   1.491       .  S
O738      In1068   2.242   1_554  S
O738        C746   1.263       .  A
O739      In1068   2.208   1_554  S
O739        C746   1.263       .  A
C740        O747   1.260       .  A
C740       O1073   1.269   1_554  A
C740        C888   1.483       .  S
O741       C1072   1.269       .  A
C742        O744   1.264       .  A
C742        O748   1.264       .  A
C742        C828   1.470       .  S
C746        C808   1.496       .  S
O747      In1068   2.208   1_554  S
In749       O751   2.195       .  S
In749       O752   2.268       .  S
In749       O760   2.248       .  S
In749       O754   2.245       .  S
In749       O756   2.244   1_545  S
In749       O757   2.250       .  S
In749       O758   2.219   1_545  S
In749       O761   2.243   1_545  S
C750        O756   1.275       .  A
C750        O758   1.269       .  A
C750        C811   1.492       .  S
O751        C759   1.265       .  A
O752        C759   1.277       .  A
C753        O760   1.267       .  A
C753        O754   1.273       .  A
C753        C788   1.487       .  S
C755        O757   1.275       .  A
C755        O761   1.267   1_545  A
C759        C798   1.499       .  S
C762        C763   1.396   1_455  D
C763        C801   1.520       .  S
C763       C1150   1.539   1_544  S
In764       O766   2.221       .  S
In764       O767   2.235       .  S
In764       O775   2.249       .  S
In764       O769   2.279       .  S
In764       O771   2.274       .  S
In764       O772   2.196       .  S
In764       O773   2.245       .  S
In764       O776   2.256       .  S
C765        O771   1.264       .  A
C765        O773   1.258       .  A
C765       C1123   1.497       .  S
O766        C774   1.259       .  A
O767        C774   1.257       .  A
C768        O775   1.252       .  A
C768        O769   1.264       .  A
C768        C961   1.503       .  S
C770        O772   1.260       .  A
C770        O776   1.265       .  A
C770        C858   1.486       .  S
C774        C778   1.454       .  S
C777        C778   1.397       .  A
C777       C1114   1.400       .  A
C777       Br784   1.927       .  S
C778        C779   1.391       .  A
C779       C1112   1.400       .  A
C779       Br786   1.928       .  S
C780       C1111   1.400       .  A
C780        C781   1.423       .  A
C781        C782   1.426   1_556  A
C782       C1109   1.400   1_554  A
C782       Br783   1.916       .  S
C787        C788   1.407       .  A
C787        C792   1.412       .  A
C787       Br794   1.919       .  S
C788        C789   1.402       .  A
C789        C790   1.412       .  A
C789       Br796   1.921       .  S
C790        C791   1.420       .  A
C790       Br795   1.926       .  S
C791       C1097   1.497   1_554  S
C791        C792   1.415       .  A
C792      Br1125   1.930   1_554  S
Br793      C1124   1.930       .  S
C797        C798   1.412       .  A
C797        C802   1.412       .  A
C797       Br804   1.924       .  S
C798        C799   1.417       .  A
C799        C800   1.412       .  A
C799       Br806   1.941   1_554  S
C800        C801   1.423       .  A
C800       Br805   1.922   1_554  S
C801        C802   1.413       .  A
C802       Br803   1.920   1_545  S
C807        C808   1.412       .  A
C807        C812   1.405       .  A
C807       Br814   1.939       .  S
C808        C809   1.422       .  A
C809        C810   1.415       .  A
C809       Br816   1.930       .  S
C810        C811   1.410       .  A
C810       Br815   1.931       .  S
C811        C812   1.413       .  A
C812       Br813   1.921       .  S
C817        C818   1.417       .  A
C817        C822   1.408       .  A
C817       Br824   1.923       .  S
C818       C1095   1.539   1_565  S
C819        C820   1.404       .  A
C819      Br1158   1.911       .  S
C820       Br825   1.922       .  S
C821        C822   1.414       .  A
C822       Br823   1.911       .  S
Br826      C1151   1.911   1_554  S
C827        C828   1.407       .  A
C827        C832   1.401       .  A
C827       Br834   1.940       .  S
C828        C829   1.401       .  A
C829        C830   1.408       .  A
C829       Br836   1.937       .  S
C830        C831   1.423       .  A
C830       Br835   1.908   1_655  S
C831        C832   1.424       .  A
C832       Br833   1.923       .  S
C837        C838   1.418       .  A
C837        C842   1.402       .  A
C837       Br844   1.943       .  S
C838        C839   1.409       .  A
C839        C840   1.414       .  A
C839       Br846   1.925       .  S
C840        C841   1.423       .  A
C840       Br845   1.936       .  S
C841        C842   1.414       .  A
C842       Br843   1.939       .  S
C847        C848   1.425       .  A
C847        C852   1.409       .  A
C847       Br854   1.925       .  S
C848        C849   1.418       .  A
C849        C850   1.415       .  A
C849       Br856   1.923   1_565  S
C850        C851   1.404       .  A
C850       Br855   1.919       .  S
C851        C852   1.406       .  A
C852       Br853   1.934       .  S
C857        C858   1.408       .  A
C857        C862   1.398       .  A
C857       Br864   1.935       .  S
C858        C859   1.415       .  A
C859        C860   1.413       .  A
C859       Br866   1.928       .  S
C860        C861   1.412       .  A
C860       Br865   1.930       .  S
C861        C862   1.412       .  A
C862       Br863   1.924       .  S
C867        C868   1.409       .  A
C867        C872   1.417       .  A
C867       Br874   1.931       .  S
C868        C869   1.412       .  A
C869        C870   1.405       .  A
C869       Br876   1.940       .  S
C870        C871   1.418       .  A
C870       Br875   1.914   1_655  S
C871        C872   1.420       .  A
C872       Br873   1.915       .  S
C877        C878   1.428       .  A
C877        C882   1.402       .  A
C877       Br884   1.923       .  S
C878        C879   1.418       .  A
C879        C880   1.405       .  A
C879       Br886   1.917       .  S
C880        C881   1.405       .  A
C880       Br885   1.939       .  S
C881        C882   1.396       .  A
C882       Br883   1.939       .  S
C887        C888   1.409       .  A
C887        C892   1.411       .  A
C887      Br1226   1.932   1_554  S
C888        C889   1.403       .  A
C889        C890   1.412       .  A
C889       Br896   1.916   1_554  S
C890        C891   1.421       .  A
C890       Br895   1.923       .  S
C891        C892   1.413       .  A
C892      Br1225   1.916   1_655  S
Br893      C1224   1.916   1_455  S
Br894      C1219   1.932       .  S
C897        C898   1.415       .  A
C897        C902   1.409       .  A
C897       Br904   1.925       .  S
C898        C899   1.415       .  A
C899        C900   1.409       .  A
C899       Br906   1.921       .  S
C900        C901   1.410       .  A
C900       Br905   1.931       .  S
C901        C902   1.413       .  A
C902       Br903   1.938       .  S
C907        C908   1.400       .  A
C907        C912   1.417       .  A
C907       Br914   1.928   1_554  S
C908        C909   1.394       .  A
C909        C910   1.407       .  A
C909       Br916   1.939       .  S
C910        C911   1.431       .  A
C910       Br915   1.902       .  S
C911        C912   1.434       .  A
C912       Br913   1.912       .  S
C917        C918   1.419       .  A
C917        C922   1.415       .  A
C917       Br924   1.917       .  S
C918        C919   1.421       .  A
C919        C920   1.413       .  A
C919       Br926   1.917       .  S
C920        C921   1.403       .  A
C920       Br925   1.915       .  S
C921        C922   1.415       .  A
C922       Br923   1.938       .  S
C927        C928   1.420       .  A
C927        C932   1.410       .  A
C927       Br934   1.922       .  S
C928        C929   1.418       .  A
C929        C930   1.392       .  A
C929       Br936   1.937       .  S
C930        C931   1.398       .  A
C930       Br935   1.926       .  S
C931        C932   1.402       .  A
C932       Br933   1.927       .  S
C937        C942   1.428       .  A
C937       Br944   1.936       .  S
C938        C939   1.404       .  A
C939        C940   1.416       .  A
C939       Br946   1.920       .  S
C940        C941   1.429       .  A
C940       Br945   1.911       .  S
C942       Br943   1.915       .  S
C947        C948   1.404       .  A
C947        C952   1.407       .  A
C947       Br954   1.937       .  S
C948        C949   1.393       .  A
C949        C950   1.401       .  A
C949       Br956   1.939       .  S
C950        C951   1.428       .  A
C950       Br955   1.917       .  S
C951        C952   1.423       .  A
C952       Br953   1.923       .  S
C957        C958   1.419       .  A
C957        C962   1.417       .  A
C958        C959   1.423       .  A
C959        C960   1.410       .  A
C959       Br966   1.924       .  S
C960        C961   1.404       .  A
C960       Br965   1.929       .  S
C961        C962   1.420       .  A
C962       Br963   1.934       .  S
C967        C968   1.401       .  A
C967        C972   1.411       .  A
C967       Br974   1.927       .  S
C968        C969   1.406       .  A
C969        C970   1.415       .  A
C969       Br976   1.930       .  S
C970        C971   1.422       .  A
C970       Br975   1.932       .  S
C971        C972   1.423       .  A
C972       Br973   1.928       .  S
C977        C978   1.419       .  A
C977        C982   1.413       .  A
C977       Br984   1.919       .  S
C978        C979   1.413       .  A
C979        C980   1.413       .  A
C979       Br986   1.910   1_655  S
C980        C981   1.413       .  A
C980       Br985   1.929       .  S
C981        C982   1.420       .  A
C982       Br983   1.943       .  S
C987        C988   1.415       .  A
C987        C992   1.404       .  A
C987       Br994   1.932       .  S
C988        C989   1.408       .  A
C989        C990   1.409       .  A
C989       Br996   1.929       .  S
C990        C991   1.411       .  A
C990       Br995   1.923       .  S
C991        C992   1.410       .  A
C992       Br993   1.933       .  S
In997       O999   2.220       .  S
In997      O1000   2.237       .  S
In997      O1008   2.239       .  S
In997      O1002   2.232       .  S
In997      O1004   2.232       .  S
In997      O1005   2.252       .  S
In997      O1006   2.201       .  S
In997      O1009   2.195       .  S
C998       O1004   1.276       .  A
C998       O1006   1.266       .  A
C998       C1320   1.478       .  S
O999       C1007   1.267       .  A
O1000      C1007   1.275       .  A
C1001      O1008   1.270       .  A
C1001      O1002   1.272       .  A
C1001      C1300   1.482       .  S
C1003      O1005   1.276       .  A
C1003      O1009   1.265       .  A
C1003      C1313   1.498       .  S
C1007      C1031   1.471       .  S
C1010      C1270   1.529       .  S
C1010      C1310   1.545       .  S
C1011      C1283   1.516       .  S
C1011      C1290   1.522       .  S
In1012     O1014   2.244       .  S
In1012     O1015   2.209       .  S
In1012     O1023   2.232       .  S
In1012     O1017   2.289       .  S
In1012     O1019   2.274       .  S
In1012     O1020   2.200       .  S
In1012     O1021   2.234       .  S
In1012     O1024   2.245       .  S
C1013      O1019   1.265       .  A
C1013      O1021   1.257       .  A
C1013      C1303   1.502       .  S
O1014      C1022   1.263       .  A
O1015      C1022   1.260       .  A
C1016      O1023   1.251       .  A
C1016      O1017   1.267       .  A
C1016      C1253   1.498       .  S
C1018      O1020   1.253       .  A
C1018      O1024   1.263       .  A
C1018      C1280   1.457       .  S
C1022      C1260   1.481       .  S
In1025     O1027   2.191       .  S
In1025     O1036   2.229       .  S
In1025     O1030   2.232       .  S
In1025     O1032   2.240       .  S
C1026      O1032   1.267       .  A
C1026      C1263   1.459       .  S
O1027      C1035   1.261       .  A
C1029      O1036   1.265       .  A
C1029      O1030   1.267       .  A
C1029      C1233   1.485       .  S
C1031      O1033   1.269       .  A
C1031      O1037   1.262   1_556  A
C1035      C1240   1.480       .  S
C1038      C1273   1.564       .  S
C1038      C1039   1.392       .  D
C1039      C1210   1.505       .  S
C1039      C1223   1.528       .  S
In1040     O1042   2.210       .  S
In1040     O1043   2.230       .  S
In1040     O1051   2.204       .  S
In1040     O1045   2.287       .  S
In1040     O1047   2.275       .  S
In1040     O1048   2.191       .  S
In1040     O1049   2.227       .  S
In1040     O1052   2.261       .  S
C1041      O1047   1.263       .  A
C1041      O1049   1.252       .  A
C1041      C1230   1.491       .  S
O1042      C1050   1.260       .  A
O1043      C1050   1.260       .  A
C1044      O1051   1.253       .  A
C1044      O1045   1.264       .  A
C1044      C1200   1.493       .  S
C1046      O1048   1.263       .  A
C1046      O1052   1.270       .  A
C1046      C1323   1.485       .  S
C1050      C1213   1.459       .  S
In1053     O1055   2.244   1_565  S
In1053     O1056   2.271       .  S
In1053     O1064   2.242       .  S
In1053     O1058   2.210       .  S
In1053     O1060   2.246   1_565  S
In1053     O1061   2.299       .  S
In1053     O1062   2.208   1_565  S
In1053     O1065   2.203       .  S
C1054      O1060   1.266       .  A
C1054      O1062   1.263       .  A
C1054      C1193   1.483       .  S
O1055      C1063   1.262   1_545  A
O1056      C1063   1.272       .  A
C1057      O1064   1.264       .  A
C1057      O1058   1.264       .  A
C1057      C1173   1.493       .  S
C1059      O1061   1.273       .  A
C1059      O1065   1.259       .  A
C1059      C1183   1.489       .  S
C1063      C1087   1.482   1_565  S
C1066      C1163   1.527       .  S
C1066      C1203   1.521       .  S
C1066      C1067   1.397       .  D
C1067      C1153   1.535       .  S
In1068     O1073   2.280       .  S
In1068     O1075   2.295       .  S
In1068     O1076   2.204       .  S
In1068     O1077   2.171       .  S
In1068     O1080   2.229       .  S
C1069      O1075   1.275       .  A
C1069      O1077   1.252       .  A
C1069      C1170   1.491       .  S
O1070      C1078   1.263       .  A
O1071      C1078   1.263       .  A
C1072      O1079   1.260       .  A
C1072      C1220   1.483       .  S
C1074      O1076   1.264       .  A
C1074      O1080   1.264       .  A
C1074      C1160   1.470       .  S
C1078      C1140   1.496       .  S
In1081     O1083   2.195       .  S
In1081     O1084   2.268       .  S
In1081     O1092   2.248       .  S
In1081     O1086   2.245       .  S
In1081     O1088   2.244   1_545  S
In1081     O1089   2.250       .  S
In1081     O1090   2.219   1_545  S
In1081     O1093   2.243   1_545  S
C1082      O1088   1.275       .  A
C1082      O1090   1.269       .  A
C1082      C1143   1.492       .  S
O1083      C1091   1.265       .  A
O1084      C1091   1.277       .  A
C1085      O1092   1.267       .  A
C1085      O1086   1.273       .  A
C1085      C1120   1.487       .  S
C1087      O1089   1.275       .  A
C1087      O1093   1.267   1_545  A
C1091      C1130   1.499       .  S
C1094      C1095   1.396   1_455  D
C1095      C1133   1.520       .  S
In1096     O1098   2.221       .  S
In1096     O1099   2.235       .  S
In1096     O1107   2.249       .  S
In1096     O1101   2.279       .  S
In1096     O1103   2.274       .  S
In1096     O1104   2.196       .  S
In1096     O1105   2.245       .  S
In1096     O1108   2.256       .  S
C1097      O1103   1.264       .  A
C1097      O1105   1.258       .  A
O1098      C1106   1.259       .  A
O1099      C1106   1.257       .  A
C1100      O1107   1.252       .  A
C1100      O1101   1.264       .  A
C1100      C1293   1.503       .  S
C1102      O1104   1.260       .  A
C1102      O1108   1.265       .  A
C1102      C1190   1.486       .  S
C1106      C1110   1.454       .  S
C1109      C1110   1.397       .  A
C1109     Br1116   1.927       .  S
C1110      C1111   1.391       .  A
C1111     Br1118   1.928       .  S
C1112      C1113   1.423       .  A
C1113      C1114   1.426       .  A
C1114     Br1115   1.916       .  S
C1119      C1120   1.407       .  A
C1119      C1124   1.412       .  A
C1119     Br1126   1.919       .  S
C1120      C1121   1.402       .  A
C1121      C1122   1.412       .  A
C1121     Br1128   1.921       .  S
C1122      C1123   1.420       .  A
C1122     Br1127   1.926       .  S
C1123      C1124   1.415       .  A
C1129      C1130   1.412       .  A
C1129      C1134   1.412       .  A
C1129     Br1136   1.924       .  S
C1130      C1131   1.416       .  A
C1131      C1132   1.412       .  A
C1131     Br1138   1.941       .  S
C1132      C1133   1.423       .  A
C1132     Br1137   1.922       .  S
C1133      C1134   1.413       .  A
C1134     Br1135   1.920   1_545  S
C1139      C1140   1.412       .  A
C1139      C1144   1.405       .  A
C1139     Br1146   1.939       .  S
C1140      C1141   1.422       .  A
C1141      C1142   1.415       .  A
C1141     Br1148   1.930       .  S
C1142      C1143   1.410       .  A
C1142     Br1147   1.931       .  S
C1143      C1144   1.413       .  A
C1144     Br1145   1.921       .  S
C1149      C1150   1.417       .  A
C1149      C1154   1.408       .  A
C1149     Br1156   1.923       .  S
C1151      C1152   1.404       .  A
C1152     Br1157   1.922       .  S
C1153      C1154   1.414       .  A
C1154     Br1155   1.911       .  S
C1159      C1160   1.407       .  A
C1159      C1164   1.401       .  A
C1159     Br1166   1.940       .  S
C1160      C1161   1.401       .  A
C1161      C1162   1.408       .  A
C1161     Br1168   1.937   1_556  S
C1162      C1163   1.423       .  A
C1162     Br1167   1.907   1_655  S
C1163      C1164   1.424       .  A
C1164     Br1165   1.923       .  S
C1169      C1170   1.418       .  A
C1169      C1174   1.402       .  A
C1169     Br1176   1.943       .  S
C1170      C1171   1.409       .  A
C1171      C1172   1.414       .  A
C1171     Br1178   1.925       .  S
C1172      C1173   1.423       .  A
C1172     Br1177   1.936       .  S
C1173      C1174   1.414       .  A
C1174     Br1175   1.939       .  S
C1179      C1180   1.425       .  A
C1179      C1184   1.409       .  A
C1179     Br1186   1.925       .  S
C1180      C1181   1.418       .  A
C1181      C1182   1.415       .  A
C1181     Br1188   1.923   1_565  S
C1182      C1183   1.404       .  A
C1182     Br1187   1.920       .  S
C1183      C1184   1.406       .  A
C1184     Br1185   1.934       .  S
C1189      C1190   1.408       .  A
C1189      C1194   1.398       .  A
C1189     Br1196   1.935       .  S
C1190      C1191   1.416       .  A
C1191      C1192   1.413       .  A
C1191     Br1198   1.928       .  S
C1192      C1193   1.412       .  A
C1192     Br1197   1.930       .  S
C1193      C1194   1.412       .  A
C1194     Br1195   1.924       .  S
C1199      C1200   1.409       .  A
C1199      C1204   1.417       .  A
C1199     Br1206   1.931       .  S
C1200      C1201   1.412       .  A
C1201      C1202   1.405       .  A
C1201     Br1208   1.940       .  S
C1202      C1203   1.418       .  A
C1202     Br1207   1.914   1_655  S
C1203      C1204   1.420       .  A
C1204     Br1205   1.915       .  S
C1209      C1210   1.428       .  A
C1209      C1214   1.402       .  A
C1209     Br1216   1.923       .  S
C1210      C1211   1.418       .  A
C1211      C1212   1.405       .  A
C1211     Br1218   1.917       .  S
C1212      C1213   1.405       .  A
C1212     Br1217   1.939       .  S
C1213      C1214   1.396       .  A
C1214     Br1215   1.939       .  S
C1219      C1220   1.409       .  A
C1219      C1224   1.411       .  A
C1220      C1221   1.403       .  A
C1221      C1222   1.412       .  A
C1221     Br1228   1.916       .  S
C1222      C1223   1.421       .  A
C1222     Br1227   1.923       .  S
C1223      C1224   1.413       .  A
C1229      C1230   1.415       .  A
C1229      C1234   1.409       .  A
C1229     Br1236   1.925       .  S
C1230      C1231   1.415       .  A
C1231      C1232   1.409       .  A
C1231     Br1238   1.921       .  S
C1232      C1233   1.410       .  A
C1232     Br1237   1.931       .  S
C1233      C1234   1.413       .  A
C1234     Br1235   1.938       .  S
C1239      C1240   1.400       .  A
C1239      C1244   1.417       .  A
C1239     Br1246   1.928       .  S
C1240      C1241   1.394       .  A
C1241      C1242   1.407       .  A
C1241     Br1248   1.939       .  S
C1242      C1243   1.431       .  A
C1242     Br1247   1.902       .  S
C1243      C1244   1.434       .  A
C1244     Br1245   1.912       .  S
C1249      C1250   1.419       .  A
C1249      C1254   1.415       .  A
C1249     Br1256   1.917       .  S
C1250      C1251   1.421       .  A
C1251      C1252   1.413       .  A
C1251     Br1258   1.917       .  S
C1252      C1253   1.403       .  A
C1252     Br1257   1.915       .  S
C1253      C1254   1.415       .  A
C1254     Br1255   1.938       .  S
C1259      C1260   1.420       .  A
C1259      C1264   1.410       .  A
C1259     Br1266   1.922       .  S
C1260      C1261   1.418       .  A
C1261      C1262   1.392       .  A
C1261     Br1268   1.937       .  S
C1262      C1263   1.398       .  A
C1262     Br1267   1.926       .  S
C1263      C1264   1.402       .  A
C1264     Br1265   1.927       .  S
C1269      C1274   1.428       .  A
C1269     Br1276   1.936       .  S
C1270      C1271   1.404       .  A
C1271      C1272   1.416       .  A
C1271     Br1278   1.920       .  S
C1272      C1273   1.429       .  A
C1272     Br1277   1.911       .  S
C1274     Br1275   1.915       .  S
C1279      C1280   1.404       .  A
C1279      C1284   1.407       .  A
C1279     Br1286   1.937       .  S
C1280      C1281   1.393       .  A
C1281      C1282   1.401       .  A
C1281     Br1288   1.939       .  S
C1282      C1283   1.428       .  A
C1282     Br1287   1.917       .  S
C1283      C1284   1.423       .  A
C1284     Br1285   1.923       .  S
C1289      C1290   1.419       .  A
C1289      C1294   1.417       .  A
C1290      C1291   1.423       .  A
C1291      C1292   1.410       .  A
C1291     Br1298   1.924       .  S
C1292      C1293   1.404       .  A
C1292     Br1297   1.929       .  S
C1293      C1294   1.420       .  A
C1294     Br1295   1.934       .  S
C1299      C1300   1.401       .  A
C1299      C1304   1.411       .  A
C1299     Br1306   1.927       .  S
C1300      C1301   1.406       .  A
C1301      C1302   1.415       .  A
C1301     Br1308   1.930       .  S
C1302      C1303   1.422       .  A
C1302     Br1307   1.932       .  S
C1303      C1304   1.423       .  A
C1304     Br1305   1.928       .  S
C1309      C1310   1.419       .  A
C1309      C1314   1.413       .  A
C1309     Br1316   1.919       .  S
C1310      C1311   1.413       .  A
C1311      C1312   1.413       .  A
C1311     Br1318   1.910   1_655  S
C1312      C1313   1.413       .  A
C1312     Br1317   1.929       .  S
C1313      C1314   1.420       .  A
C1314     Br1315   1.943       .  S
C1319      C1320   1.415       .  A
C1319      C1324   1.404       .  A
C1319     Br1326   1.932       .  S
C1320      C1321   1.408       .  A
C1321      C1322   1.409       .  A
C1321     Br1328   1.929       .  S
C1322      C1323   1.411       .  A
C1322     Br1327   1.923       .  S
C1323      C1324   1.410       .  A
C1324     Br1325   1.933       .  S
