geometry optimzed in LAMMPS
_audit_creation_date              2020-11-30 
_audit_creation_method            'lammps2cif' 
_symmetry_space_group_name_H-M    'P1' 
_symmetry_Int_Tables_number       1 
_symmetry_cell_setting            triclinic 
loop_ 
_symmetry_equiv_pos_as_xyz 
  x,y,z 
_cell_length_a                    24.22948957 
_cell_length_b                    31.931555327595785 
_cell_length_c                    29.39635379123116 
_cell_angle_alpha                 95.68848388791356 
_cell_angle_beta                  88.52017422771233 
_cell_angle_gamma                 90.76489852830906 
loop_ 
_atom_site_label 
_atom_site_type_symbol 
_atom_site_fract_x 
_atom_site_fract_y 
_atom_site_fract_z 
_atom_site_charge 
C1          C  0.20140371  0.10989455  0.04357438     0.80400
N2          N  0.16567697  0.08475208  0.01690562    -0.77900
C3          C  0.10937242  0.08890444  0.02550704     0.82900
N4          N  0.09118375  0.11828367  0.05935240    -0.77800
C5          C  0.12601611  0.14505908  0.08288534     0.83000
N6          N  0.18013632  0.14019805  0.07447812    -0.79500
C7          C  0.19750750  0.39378629  0.18415021     0.80400
N8          N  0.17664610  0.35398538  0.18208971    -0.77900
C9          C  0.12245956  0.34526720  0.18236966     0.82900
N10         N  0.08722903  0.37780150  0.18588169    -0.77800
C11         C  0.10521394  0.41843855  0.18561117     0.83000
N12         N  0.16146713  0.42677849  0.18400348    -0.79500
C13         C  0.25927930  0.39497175  0.17873110     0.80400
N14         N  0.28145505  0.35610755  0.17009397    -0.77900
C15         C  0.33569188  0.34993882  0.16349623     0.83000
N16         N  0.36951374  0.38375989  0.16566567    -0.77800
C17         C  0.34987346  0.42370300  0.17084364     0.83000
N18         N  0.29346507  0.42970645  0.17717508    -0.79500
O19         O  0.39828112  0.29519134  0.13819451    -0.72700
O20         O  0.06469410  0.19613145  0.12184937    -0.73700
O21         O  0.06365087  0.28480592  0.16631281    -0.62300
O22         O  0.39982387  0.20768601  0.09717582    -0.70700
O23         O  0.32770926  0.22228841  0.05630367    -0.70300
O24         O  0.12673306  0.30118276  0.11455611    -0.61600
O25         O  0.12900445  0.21661259  0.07328007    -0.74100
O26         O  0.32603024  0.30624420  0.09595226    -0.72800
Cu27       Cu  0.43587162  0.26223484  0.08440822     1.04600
Cu28       Cu  0.35901075  0.27592707  0.03987948     1.04300
C29         C  0.35281676  0.31360093  0.13274354     0.93500
C30         C  0.10710064  0.18820291  0.09572558     0.92600
C31         C  0.10501007  0.30698101  0.15464561     0.84700
C32         C  0.35499303  0.19668349  0.07734272     0.91000
C33         C  0.26320464  0.11233021  0.03962370     0.80400
N34         N  0.28488757  0.14481697  0.06673549    -0.77900
C35         C  0.33905903  0.15287142  0.06895671     0.82900
N36         N  0.37378909  0.12778855  0.04267752    -0.77800
C37         C  0.35456410  0.09656158  0.01220254     0.83000
N38         N  0.29812876  0.08844158  0.01036559    -0.79500
C39         C  0.39730746  0.07587781  0.97772336    -0.02300
C40         C  0.39277097  0.45799272  0.15999161    -0.02300
N41         N  0.35456262  0.01461103  0.94668064    -0.03300
C42         C  0.38196898  0.05126584  0.89095035    -0.23800
C43         C  0.36706058  0.05342032  0.93706509    -0.00800
H44         H  0.40497659  0.07490683  0.87451467     0.13000
N45         N  0.38435566  0.00457711  0.98265677    -0.03300
C46         C  0.41444652  0.46793012  0.24813435    -0.23800
C47         C  0.42405797  0.47543394  0.20277198    -0.00800
H48         H  0.39833553  0.43896026  0.25980665     0.13000
C49         C  0.34430393  0.96300780  0.48659959    -0.00700
C50         C  0.35219113  0.99058654  0.45311082    -0.23600
H51         H  0.36816476  0.98243251  0.41871013     0.13000
C52         C  0.42101712  0.53725783  0.24251996    -0.00700
C53         C  0.41239104  0.50748998  0.27359276    -0.23600
H54         H  0.39434694  0.51334480  0.30770272     0.13000
C55         C  0.18910137  0.07948416  0.63492383     0.80400
N56         N  0.15334994  0.05415585  0.60813799    -0.77900
C57         C  0.09685196  0.06038429  0.61375692     0.82900
N58         N  0.07900485  0.09298282  0.64394189    -0.77800
C59         C  0.11405296  0.11947739  0.66780897     0.83000
N60         N  0.16808168  0.11170100  0.66340442    -0.79500
C61         C  0.19676143  0.37628470  0.73980031     0.80400
N62         N  0.17632100  0.33647125  0.74061485    -0.77900
C63         C  0.12214534  0.32756252  0.74171096     0.82900
N64         N  0.08660150  0.35965615  0.74219202    -0.77800
C65         C  0.10388556  0.39994806  0.73842872     0.83000
N66         N  0.16019823  0.40865742  0.73663694    -0.79500
C67         C  0.25897880  0.37776713  0.73665938     0.80400
N68         N  0.28165794  0.33911223  0.73632667    -0.77900
C69         C  0.33559922  0.33197278  0.72883345     0.83000
N70         N  0.36920232  0.36521855  0.72343264    -0.77800
C71         C  0.34925809  0.40473872  0.72154922     0.83000
N72         N  0.29278875  0.41111033  0.72724365    -0.79500
O73         O  0.39447473  0.27319755  0.70755242    -0.72700
O74         O  0.05797397  0.17614438  0.70177918    -0.73700
O75         O  0.06156908  0.26761688  0.73432288    -0.62300
O76         O  0.38962583  0.18242058  0.67425013    -0.70700
O77         O  0.31471125  0.19529781  0.63594011    -0.70300
O78         O  0.12466017  0.27609292  0.67965852    -0.61600
O79         O  0.12050016  0.18837759  0.64793749    -0.74100
O80         O  0.32005044  0.28213823  0.66705588    -0.72800
Cu81       Cu  0.42682437  0.23489627  0.65492835     1.04600
Cu82       Cu  0.34724356  0.24604003  0.61238748     1.04300
C83         C  0.34966080  0.29240136  0.70181082     0.93500
C84         C  0.09833468  0.16389128  0.67515773     0.92600
C85         C  0.10380320  0.28691131  0.71931305     0.84700
C86         C  0.34327777  0.17069203  0.65721071     0.91000
C87         C  0.25096686  0.08212662  0.63032942     0.80400
N88         N  0.27305929  0.11715195  0.65324338    -0.77900
C89         C  0.32717777  0.12649954  0.65146089     0.82900
N90         N  0.36102404  0.10019337  0.62562859    -0.77800
C91         C  0.34114125  0.06588209  0.59983684     0.83000
N92         N  0.28497659  0.05677308  0.60179430    -0.79500
C93         C  0.38056564  0.04473634  0.56269543    -0.02300
C94         C  0.39123320  0.43658803  0.70297152    -0.02300
N95         N  0.33721063  0.98600673  0.52623145    -0.03300
C96         C  0.35317886  0.03126526  0.47600360    -0.23800
C97         C  0.34574032  0.02649935  0.52231736    -0.00800
H98         H  0.36998408  0.05879250  0.46171681     0.13000
N99         N  0.36921963  0.97234341  0.55892171    -0.03300
C100        C  0.41603469  0.46221673  0.78836296    -0.23800
C101        C  0.42411858  0.46105322  0.74118535    -0.00800
H102        H  0.40057812  0.43658228  0.80670535     0.13000
C103        C  0.36240586  0.98654530  0.91083190    -0.00700
C104        C  0.37843038  0.00875768  0.87404728    -0.23600
H105        H  0.39773758  0.99548538  0.84235145     0.13000
C106        C  0.42160687  0.52771103  0.76744976    -0.00700
C107        C  0.41430318  0.50493208  0.80516607    -0.23600
H108        H  0.39728475  0.51684581  0.83829407     0.13000
C109        C  0.37061723  0.50026203  0.14677198    -0.00700
C110        C  0.31641937  0.51416042  0.14522152    -0.23600
H111        H  0.28087838  0.49530870  0.13434419     0.13000
C112        C  0.41650762  0.03638560  0.99843798    -0.00700
C113        C  0.46900058  0.02043301  0.00318433    -0.23600
H114        H  0.50669006  0.03831041  0.00948787     0.13000
C115        C  0.19157900  0.59699868  0.31176099     0.80400
N116        N  0.15554744  0.57788002  0.28053613    -0.77900
C117        C  0.09935152  0.58330730  0.28826747     0.82900
N118        N  0.08132794  0.60777730  0.32616312    -0.77800
C119        C  0.11651989  0.62907334  0.35491305     0.83000
N120        N  0.17084575  0.62327413  0.34725087    -0.79500
C121        C  0.18684177  0.85598442  0.50834952     0.80400
N122        N  0.16472156  0.81720370  0.49718500    -0.77900
C123        C  0.11037945  0.81037418  0.49302944     0.82900
N124        N  0.07635581  0.84342150  0.50202636    -0.77800
C125        C  0.09556957  0.88359967  0.51177396     0.83000
N126        N  0.15218839  0.89028052  0.51389231    -0.79500
C127        C  0.24876590  0.85648098  0.50445908     0.80400
N128        N  0.27111652  0.81860549  0.48943397    -0.77900
C129        C  0.32541608  0.81367051  0.48009674     0.83000
N130        N  0.35901866  0.84765461  0.48652961    -0.77800
C131        C  0.33880726  0.88669515  0.49936088     0.83000
N132        N  0.28260093  0.89137508  0.50786747    -0.79500
O133        O  0.38776821  0.76341213  0.44242894    -0.72700
O134        O  0.05475774  0.67430015  0.40098156    -0.73700
O135        O  0.05123452  0.75450668  0.46197099    -0.62300
O136        O  0.39082463  0.68308069  0.38220342    -0.70700
O137        O  0.31579243  0.70382090  0.34910616    -0.70300
O138        O  0.11747295  0.77938932  0.41798955    -0.61600
O139        O  0.12126136  0.70238312  0.35984062    -0.74100
O140        O  0.31253940  0.78053553  0.40702951    -0.72800
Cu141      Cu  0.42379513  0.74151290  0.38199591     1.04600
Cu142      Cu  0.34377970  0.76210852  0.34541876     1.04300
C143        C  0.34136973  0.78206948  0.44284775     0.93500
C144        C  0.09838369  0.67041844  0.37556079     0.92600
C145        C  0.09362013  0.77802180  0.45706343     0.84700
C146        C  0.34548183  0.67459970  0.36192919     0.91000
C147        C  0.25361751  0.59723521  0.30857842     0.80400
N148        N  0.27634969  0.62326730  0.34234845    -0.77900
C149        C  0.33044451  0.63158166  0.34446499     0.82900
N150        N  0.36411547  0.61183532  0.31216347    -0.77800
C151        C  0.34409218  0.58685732  0.27573375     0.83000
N152        N  0.28745389  0.58000752  0.27321900    -0.79500
C153        C  0.38697214  0.57642997  0.23594941    -0.02300
C154        C  0.37837207  0.92431008  0.49478808    -0.02300
N155        N  0.39889609  0.53111398  0.16950831    -0.03300
C156        C  0.31384512  0.55345993  0.17148701    -0.23800
C157        C  0.36671326  0.56213781  0.18746441    -0.00800
H158        H  0.27621430  0.56895854  0.18389655     0.13000
N159        N  0.43061640  0.51654479  0.20184362    -0.03300
C160        C  0.45246355  0.94664393  0.55831129    -0.23800
C161        C  0.39903425  0.93944308  0.54281659    -0.00800
H162        H  0.48876862  0.92857312  0.54753317     0.13000
C163        C  0.36808850  0.47457769  0.68137370    -0.00700
C164        C  0.31386117  0.48750752  0.67760619    -0.23600
H165        H  0.27799348  0.46739715  0.67178072     0.13000
C166        C  0.40018440  0.00307980  0.57874210    -0.00700
C167        C  0.45321938  0.98735158  0.58124122    -0.23600
H168        H  0.49019192  0.00515468  0.59060277     0.13000
C169        C  0.19239294  0.59878636  0.82201868     0.80400
N170        N  0.15563290  0.57222085  0.79808386    -0.77900
C171        C  0.09951856  0.57950443  0.80466407     0.82900
N172        N  0.08257502  0.61225603  0.83436434    -0.77800
C173        C  0.11833661  0.64000136  0.85472820     0.83000
N174        N  0.17244240  0.63305841  0.84809729    -0.79500
C175        C  0.19537260  0.88678506  0.94475365     0.80400
N176        N  0.17439919  0.84705175  0.93824499    -0.77900
C177        C  0.12020528  0.83913199  0.93590006     0.82900
N178        N  0.08556383  0.87165961  0.93889291    -0.77800
C179        C  0.10370295  0.91212734  0.94123433     0.83000
N180        N  0.15996251  0.92036932  0.94441173    -0.79500
C181        C  0.25709094  0.88770309  0.94798509     0.80400
N182        N  0.27895412  0.84885957  0.94882326    -0.77900
C183        C  0.33320794  0.84125194  0.94374666     0.83000
N184        N  0.36785523  0.87449554  0.94069548    -0.77800
C185        C  0.34849569  0.91432700  0.93909775     0.83000
N186        N  0.29202926  0.92089706  0.94138482    -0.79500
O187        O  0.39334814  0.78308399  0.92032939    -0.72700
O188        O  0.05788891  0.69302151  0.88742620    -0.73700
O189        O  0.05907993  0.78115249  0.92331199    -0.62300
O190        O  0.39193121  0.69259212  0.87913910    -0.70700
O191        O  0.31722179  0.70669595  0.84137125    -0.70300
O192        O  0.12140842  0.79367645  0.86923158    -0.61600
O193        O  0.11968842  0.70831093  0.83407139    -0.74100
O194        O  0.31745274  0.79183647  0.88170111    -0.72800
Cu195      Cu  0.42696965  0.74818825  0.86497367     1.04600
Cu196      Cu  0.34676594  0.76147381  0.82434573     1.04300
C197        C  0.34767816  0.80182523  0.91608155     0.93500
C198        C  0.09976841  0.68320334  0.86155918     0.92600
C199        C  0.10138970  0.80106334  0.90972154     0.84700
C200        C  0.34669010  0.68070054  0.86017148     0.91000
C201        C  0.25437599  0.59716014  0.82063930     0.80400
N202        N  0.27731215  0.62762009  0.84984795    -0.77900
C203        C  0.33151627  0.63600790  0.85072328     0.82900
N204        N  0.36511040  0.61156346  0.82218538    -0.77800
C205        C  0.34484613  0.58121012  0.79066091     0.83000
N206        N  0.28819278  0.57449938  0.78904437    -0.79500
C207        C  0.38717216  0.56399372  0.75289025    -0.02300
C208        C  0.39103320  0.94827619  0.92694629    -0.02300
N209        N  0.39726006  0.50832375  0.69637227    -0.03300
C210        C  0.31225688  0.53023009  0.69468123    -0.23800
C211        C  0.36564768  0.54147937  0.70786341    -0.00800
H212        H  0.27499520  0.54761161  0.70392835     0.13000
N213        N  0.43021020  0.50037182  0.73116607    -0.03300
C214        C  0.46649205  0.97763573  0.98662262    -0.23800
C215        C  0.41269087  0.96957955  0.97229802    -0.00800
H216        H  0.50199342  0.95791182  0.97843570     0.13000
C217        C  0.53273231  0.13630695  0.96223701     0.80400
N218        N  0.49718318  0.10281716  0.96542050    -0.77900
C219        C  0.44100369  0.10904179  0.96437405     0.82900
N220        N  0.42233410  0.14929759  0.96340860    -0.77800
C221        C  0.45731490  0.18288253  0.96381746     0.83000
N222        N  0.51168536  0.17536709  0.96152749    -0.79500
C223        C  0.52836292  0.42226241  0.09989919     0.80400
N224        N  0.50795334  0.39492765  0.06618076    -0.77900
C225        C  0.45363957  0.38767074  0.06106300     0.82900
N226        N  0.41766291  0.41143452  0.08861118    -0.77800
C227        C  0.43579499  0.43988131  0.12309856     0.83000
N228        N  0.49207372  0.44405683  0.12968790    -0.79500
C229        C  0.58873202  0.41727895  0.10684002     0.80400
N230        N  0.61011937  0.38131816  0.08518611    -0.77900
C231        C  0.66433494  0.37344918  0.08511071     0.83000
N232        N  0.69785844  0.40078317  0.10849181    -0.77800
C233        C  0.67833454  0.43474682  0.13462189     0.83000
N234        N  0.62264519  0.44391371  0.13357723    -0.79500
O235        O  0.66244932  0.30460752  0.10354739    -0.72700
O236        O  0.46846276  0.23100287  0.02837852    -0.73700
O237        O  0.46713782  0.31660124  0.06840719    -0.62300
O238        O  0.66379252  0.22167757  0.06375336    -0.70700
O239        O  0.72877039  0.23764361  0.01311681    -0.70300
O240        O  0.39486506  0.33171590  0.02836229    -0.61600
O241        O  0.39654345  0.24141346  0.98575051    -0.74100
O242        O  0.72761409  0.32271627  0.05418162    -0.72800
Cu243      Cu  0.70161975  0.25299135  0.11505894     1.04600
Cu244      Cu  0.77066254  0.27118566  0.06151169     1.04300
C245        C  0.68367831  0.33083548  0.07801605     0.93500
C246        C  0.44102203  0.22183466  0.99213538     0.92600
C247        C  0.43891650  0.34314949  0.04932913     0.84700
C248        C  0.68541565  0.21738363  0.02367763     0.91000
C249        C  0.59269240  0.13679281  0.97224310     0.80400
N250        N  0.61307749  0.17536871  0.98721118    -0.77900
C251        C  0.66710164  0.18193676  0.99386764     0.82900
N252        N  0.70141573  0.14932423  0.98805953    -0.77800
C253        C  0.68255428  0.10955236  0.97847229     0.83000
N254        N  0.62720928  0.10278202  0.96937957    -0.79500
C255        C  0.72390899  0.07450501  0.98307325    -0.02300
C256        C  0.71964520  0.45779555  0.16733092    -0.02300
N257        N  0.70638294  0.02239525  0.92420292    -0.03300
C258        C  0.78819196  0.04879029  0.91048986    -0.23800
C259        C  0.73795757  0.05613213  0.93369993    -0.00800
H260        H  0.82543233  0.06770742  0.91423975     0.13000
N261        N  0.67998592  0.01033052  0.96213472    -0.03300
C262        C  0.70438177  0.47298289  0.25697783    -0.23800
C263        C  0.68920969  0.47506621  0.21194674    -0.00800
H264        H  0.72686747  0.44766363  0.26963208     0.13000
C265        C  0.74112704  0.96791546  0.47931259    -0.00700
C266        C  0.72794633  0.99563993  0.44771968    -0.23600
H267        H  0.70775153  0.98754575  0.41559382     0.13000
C268        C  0.68478889  0.53985714  0.24596105    -0.00700
C269        C  0.70121693  0.51417636  0.27873677    -0.23600
H270        H  0.72095885  0.52478472  0.31048647     0.13000
C271        C  0.51669351  0.10313733  0.53932472     0.80400
N272        N  0.48149960  0.07022436  0.54715625    -0.77900
C273        C  0.42498494  0.07649714  0.54756607     0.82900
N274        N  0.40590588  0.11579922  0.54267540    -0.77800
C275        C  0.44051171  0.14889222  0.53908977     0.83000
N276        N  0.49489101  0.14150247  0.53566666    -0.79500
C277        C  0.52334885  0.39537593  0.64113274     0.80400
N278        N  0.50104674  0.36268724  0.61459957    -0.77900
C279        C  0.44652049  0.35469889  0.61388715     0.82900
N280        N  0.41233582  0.38136124  0.63933821    -0.77800
C281        C  0.43238765  0.41393681  0.66786612     0.83000
N282        N  0.48897248  0.42048735  0.66954532    -0.79500
C283        C  0.58499282  0.39455614  0.64250271     0.80400
N284        N  0.60775564  0.36034509  0.61849850    -0.77900
C285        C  0.66202531  0.35263684  0.61869683     0.83000
N286        N  0.69512262  0.38005320  0.64288807    -0.77800
C287        C  0.67445085  0.41327374  0.66982291     0.83000
N288        N  0.61825010  0.42078405  0.67008543    -0.79500
O289        O  0.65320531  0.28693631  0.64466057    -0.72700
O290        O  0.45467144  0.19938756  0.60039338    -0.73700
O291        O  0.45865719  0.28619917  0.63162323    -0.62300
O292        O  0.64904089  0.20076295  0.61558015    -0.70700
O293        O  0.71926846  0.20753646  0.56652590    -0.70300
O294        O  0.38428489  0.29816402  0.59225414    -0.61600
O295        O  0.37979537  0.20699195  0.56003700    -0.74100
O296        O  0.72269406  0.29689390  0.59572201    -0.72800
Cu297      Cu  0.68574741  0.23609857  0.66539137     1.04600
Cu298      Cu  0.76010996  0.24577255  0.61314547     1.04300
C299        C  0.67845140  0.30927466  0.61693309     0.93500
C300        C  0.42519896  0.18847247  0.56575155     0.92600
C301        C  0.43031011  0.31035713  0.60943905     0.84700
C302        C  0.67339344  0.19044797  0.57725351     0.91000
C303        C  0.57830126  0.10464828  0.54400561     0.80400
N304        N  0.59986494  0.14440937  0.54847557    -0.77900
C305        C  0.65434238  0.15199658  0.55156475     0.82900
N306        N  0.68831204  0.11921433  0.55094337    -0.77800
C307        C  0.66910129  0.07923490  0.55132513     0.83000
N308        N  0.61296473  0.07128669  0.54756555    -0.79500
C309        C  0.71338500  0.04742592  0.56105586    -0.02300
C310        C  0.71517150  0.43802913  0.70164499    -0.02300
N311        N  0.75249192  0.99022958  0.51826686    -0.03300
C312        C  0.72933428  0.03596148  0.47139421    -0.23800
C313        C  0.74287352  0.03057626  0.51626298    -0.00800
H314        H  0.71025832  0.06341271  0.45999574     0.13000
N315        N  0.72450135  0.97509368  0.55396865    -0.03300
C316        C  0.69628789  0.46366389  0.78902757    -0.23800
C317        C  0.68340467  0.46058123  0.74295288    -0.00800
H318        H  0.71695255  0.44002057  0.80611189     0.13000
C319        C  0.73406783  0.99116663  0.90157992    -0.00700
C320        C  0.78559171  0.00728268  0.88971765    -0.23600
H321        H  0.82049896  0.98965129  0.87495665     0.13000
C322        C  0.68029400  0.52797583  0.76770216    -0.00700
C323        C  0.69404990  0.50664495  0.80488393    -0.23600
H324        H  0.71275118  0.52058894  0.83590100     0.13000
C325        C  0.73225780  0.50044528  0.14846578    -0.00700
C326        C  0.78197414  0.52006438  0.13802611    -0.23600
H327        H  0.81923949  0.50511963  0.12398214     0.13000
C328        C  0.69332074  0.03562010  0.99893828    -0.00700
C329        C  0.70814423  0.00999517  0.03212801    -0.23600
H330        H  0.73025352  0.02006388  0.06291274     0.13000
C331        C  0.51787890  0.64396234  0.22964558     0.80400
N332        N  0.48388184  0.60916188  0.22691827    -0.77900
C333        C  0.42724254  0.61413030  0.23190115     0.82900
N334        N  0.40671748  0.65368013  0.24190165    -0.77800
C335        C  0.44049766  0.68784636  0.24779187     0.83000
N336        N  0.49501590  0.68237058  0.24035337    -0.79500
C337        C  0.51399346  0.90349332  0.42648700     0.80400
N338        N  0.49246971  0.87974066  0.39011533    -0.77900
C339        C  0.43814867  0.87200229  0.38572423     0.82900
N340        N  0.40332620  0.89084947  0.41784558    -0.77800
C341        C  0.42221378  0.91400318  0.45599041     0.83000
N342        N  0.47859942  0.91965396  0.46095223    -0.79500
C343        C  0.57591666  0.90102635  0.42800948     0.80400
N344        N  0.59745508  0.87266784  0.39504835    -0.77900
C345        C  0.65170649  0.86572320  0.39011029     0.83000
N346        N  0.68598518  0.88733413  0.41909638    -0.77800
C347        C  0.66722512  0.91337380  0.45522636     0.83000
N348        N  0.61082979  0.92057029  0.46029672    -0.79500
O349        O  0.64749988  0.79291526  0.38950986    -0.72700
O350        O  0.45423190  0.72253263  0.32019086    -0.73700
O351        O  0.45253004  0.79959032  0.37827934    -0.62300
O352        O  0.64840431  0.71727087  0.33128062    -0.70700
O353        O  0.71517542  0.74164237  0.28726960    -0.70300
O354        O  0.37734362  0.82106881  0.34613074    -0.61600
O355        O  0.37927821  0.73997818  0.28467934    -0.74100
O356        O  0.71347776  0.81994871  0.34679484    -0.72800
Cu357      Cu  0.68501104  0.73796545  0.38851664     1.04600
Cu358      Cu  0.75557223  0.76605749  0.34245427     1.04300
C359        C  0.66990643  0.82416802  0.37201416     0.93500
C360        C  0.42500048  0.72043835  0.28449303     0.92600
C361        C  0.42294514  0.82923096  0.36639021     0.84700
C362        C  0.67180065  0.71932535  0.29222683     0.91000
C363        C  0.57965037  0.64413395  0.23265139     0.80400
N364        N  0.60081193  0.68182264  0.24967176    -0.77900
C365        C  0.65493077  0.68805277  0.25614002     0.82900
N366        N  0.68939527  0.65564456  0.24613974    -0.77800
C367        C  0.67070852  0.61636685  0.23218166     0.83000
N368        N  0.61454532  0.61015797  0.22533035    -0.79500
C369        C  0.71316663  0.58052362  0.23219059    -0.02300
C370        C  0.71206721  0.92714038  0.49045210    -0.02300
N371        N  0.70065923  0.52937513  0.17122428    -0.03300
C372        C  0.77907968  0.56141921  0.15919158    -0.23800
C373        C  0.72797067  0.56505734  0.18196587    -0.00800
H374        H  0.81386569  0.58289061  0.16365485     0.13000
N375        N  0.67527574  0.51468082  0.20824101    -0.03300
C376        C  0.64156844  0.94791152  0.55966851    -0.23800
C377        C  0.69412025  0.94157968  0.54012095    -0.00800
H378        H  0.60468790  0.92985234  0.55056032     0.13000
C379        C  0.73093380  0.47707299  0.67731722    -0.00700
C380        C  0.78193027  0.49404870  0.66586743    -0.23600
H381        H  0.81920388  0.47701668  0.65559772     0.13000
C382        C  0.69488948  0.00494790  0.57735796    -0.00700
C383        C  0.64207587  0.98836796  0.58345282    -0.23600
H384        H  0.60557627  0.00585835  0.59515375     0.13000
C385        C  0.51794296  0.62761190  0.73145322     0.80400
N386        N  0.48379205  0.59362791  0.73590355    -0.77900
C387        C  0.42726964  0.59928834  0.74022569     0.82900
N388        N  0.40701318  0.63901762  0.74231975    -0.77800
C389        C  0.44100130  0.67287617  0.74134430     0.83000
N390        N  0.49543354  0.66647051  0.73463603    -0.79500
C391        C  0.52340090  0.91101699  0.86365563     0.80400
N392        N  0.50084485  0.87954575  0.83535052    -0.77900
C393        C  0.44629721  0.87205821  0.83396036     0.82900
N394        N  0.41272542  0.89831282  0.86016330    -0.77800
C395        C  0.43306361  0.92919655  0.89077670     0.83000
N396        N  0.48941498  0.93514276  0.89334208    -0.79500
C397        C  0.58477555  0.90964064  0.86494051     0.80400
N398        N  0.60642643  0.87576976  0.83971505    -0.77900
C399        C  0.66060165  0.86829754  0.83756892     0.83000
N400        N  0.69472960  0.89507608  0.86137051    -0.77800
C401        C  0.67529704  0.92765551  0.89008084     0.83000
N402        N  0.61907827  0.93535259  0.89226627    -0.79500
O403        O  0.65356142  0.79947236  0.85455846    -0.72700
O404        O  0.45521806  0.71725374  0.80758722    -0.73700
O405        O  0.45782178  0.80189482  0.84659670    -0.62300
O406        O  0.65178704  0.71548126  0.81716229    -0.70700
O407        O  0.71892627  0.72908091  0.76743973    -0.70300
O408        O  0.38204747  0.81682282  0.81080422    -0.61600
O409        O  0.38044157  0.72875936  0.76855774    -0.74100
O410        O  0.72200085  0.81551053  0.80708448    -0.72800
Cu411      Cu  0.68884377  0.74753791  0.86898875     1.04600
Cu412      Cu  0.76087832  0.76253408  0.81653742     1.04300
C413        C  0.67794289  0.82518205  0.83011570     0.93500
C414        C  0.42594227  0.70983063  0.77214316     0.92600
C415        C  0.42889034  0.82782403  0.82735376     0.84700
C416        C  0.67463783  0.70969279  0.77752738     0.91000
C417        C  0.57957682  0.62801819  0.73430740     0.80400
N418        N  0.60183117  0.66711580  0.74300669    -0.77900
C419        C  0.65620582  0.67345925  0.74832763     0.82900
N420        N  0.68960430  0.64011374  0.74557470    -0.77800
C421        C  0.66952322  0.60025441  0.74085094     0.83000
N422        N  0.61330259  0.59369940  0.73513415    -0.79500
C423        C  0.71070257  0.56560331  0.74888669    -0.02300
C424        C  0.71759069  0.95011887  0.92239240    -0.02300
N425        N  0.69934351  0.50849208  0.69468737    -0.03300
C426        C  0.77964270  0.53712948  0.68083222    -0.23800
C427        C  0.72763686  0.54416456  0.70133918    -0.00800
H428        H  0.81495863  0.55819381  0.68335156     0.13000
N429        N  0.67141721  0.49902597  0.73305024    -0.03300
C430        C  0.70535027  0.96826722  0.01173864    -0.23800
C431        C  0.68924503  0.97012912  0.96682004    -0.00800
H432        H  0.72506145  0.94183330  0.02474751     0.13000
C433        C  0.86684762  0.11138190  0.02283991     0.80400
N434        N  0.82660096  0.08844999  0.99954688    -0.77900
C435        C  0.77254267  0.09133940  0.01452601     0.82900
N436        N  0.76004866  0.11946876  0.05201395    -0.77800
C437        C  0.79951597  0.14468699  0.07354151     0.83000
N438        N  0.85231152  0.13930493  0.05881506    -0.79500
C439        C  0.86351107  0.40850614  0.16147246     0.80400
N440        N  0.84948405  0.36829258  0.16750954    -0.77900
C441        C  0.79707194  0.35602331  0.17525577     0.82900
N442        N  0.75745681  0.38643968  0.18039452    -0.77800
C443        C  0.76946221  0.42803416  0.17469629     0.83000
N444        N  0.82313751  0.43842349  0.16362556    -0.79500
C445        C  0.91870517  0.41315071  0.13947980     0.80400
N446        N  0.93391982  0.38086939  0.10819109    -0.77900
C447        C  0.98737928  0.37396312  0.09552511     0.83000
N448        N  0.02679548  0.40005447  0.11490293    -0.77800
C449        C  0.01363591  0.43145457  0.14803874     0.83000
N450        N  0.95896580  0.43748121  0.16044240    -0.79500
O451        O  0.98245238  0.30257110  0.10726492    -0.72700
O452        O  0.74434396  0.19795511  0.11923794    -0.73700
O453        O  0.74261646  0.29091616  0.16427788    -0.62300
O454        O  0.98365354  0.21807210  0.06526285    -0.70700
O455        O  0.04823226  0.23303721  0.01408233    -0.70300
O456        O  0.80772785  0.30435661  0.11318388    -0.61600
O457        O  0.80917951  0.21794616  0.07110698    -0.74100
O458        O  0.04570413  0.32133440  0.05684897    -0.72800
Cu459      Cu  0.02154243  0.24973459  0.11704442     1.04600
Cu460      Cu  0.08942154  0.26869684  0.06295074     1.04300
C461        C  0.00388665  0.33013242  0.08331777     0.93500
C462        C  0.78501450  0.18884480  0.09126313     0.92600
C463        C  0.78301680  0.31381686  0.15171764     0.84700
C464        C  0.00632829  0.21141748  0.02556990     0.91000
C465        C  0.92204543  0.11914654  0.00258960     0.80400
N466        N  0.93703860  0.16022294  0.00370489    -0.77900
C467        C  0.99011426  0.17245774  0.99855571     0.82900
N468        N  0.02941140  0.14252502  0.99056114    -0.77800
C469        C  0.01642125  0.10085729  0.99073331     0.83000
N470        N  0.96215261  0.08939688  0.99782588    -0.79500
C471        C  0.06363232  0.06922813  0.99399870    -0.02300
C472        C  0.05952578  0.45064062  0.17957784    -0.02300
N473        N  0.04671302  0.01633095  0.93606742    -0.03300
C474        C  0.12864794  0.04268487  0.92277322    -0.23800
C475        C  0.07788937  0.05053884  0.94487051    -0.00800
H476        H  0.16606178  0.06101632  0.92848882     0.13000
N477        N  0.02309779  0.00403631  0.97518211    -0.03300
C478        C  0.04583320  0.45995679  0.26984090    -0.23800
C479        C  0.03118637  0.46566565  0.22547758    -0.00800
H480        H  0.06757376  0.43326977  0.28037344     0.13000
C481        C  0.06971384  0.96156772  0.49386280    -0.00700
C482        C  0.12201235  0.97879160  0.48705185    -0.23600
H483        H  0.15863059  0.96177440  0.47483376     0.13000
C484        C  0.02726156  0.52769205  0.26384981    -0.00700
C485        C  0.04310540  0.49980018  0.29458475    -0.23600
H486        H  0.06256545  0.50822729  0.32700149     0.13000
C487        C  0.85203103  0.08564624  0.60855070     0.80400
N488        N  0.81326529  0.06201581  0.58428778    -0.77900
C489        C  0.75774070  0.06784150  0.59398864     0.82900
N490        N  0.74238847  0.09942345  0.62651909    -0.77800
C491        C  0.78053822  0.12495577  0.64883829     0.83000
N492        N  0.83461762  0.11693974  0.64005382    -0.79500
C493        C  0.85666715  0.38729201  0.71187109     0.80400
N494        N  0.83922518  0.34772090  0.71816938    -0.77900
C495        C  0.78536589  0.33737037  0.72223755     0.82900
N496        N  0.74757274  0.36854278  0.72240724    -0.77800
C497        C  0.76252716  0.40890672  0.71497188     0.83000
N498        N  0.81788118  0.41780459  0.70823405    -0.79500
C499        C  0.91450032  0.38936658  0.69344339     0.80400
N500        N  0.93006523  0.35548045  0.66461593    -0.77900
C501        C  0.98357798  0.34770087  0.65315182     0.83000
N502        N  0.02279303  0.37484340  0.67048539    -0.77800
C503        C  0.00975214  0.40759973  0.70175026     0.83000
N504        N  0.95485569  0.41453624  0.71379677    -0.79500
O505        O  0.97871027  0.27952886  0.67439641    -0.72700
O506        O  0.72305615  0.18241040  0.68046316    -0.73700
O507        O  0.72608813  0.27579425  0.71255332    -0.62300
O508        O  0.97621077  0.19286949  0.64336102    -0.70700
O509        O  0.03872641  0.20231003  0.58847403    -0.70300
O510        O  0.79535034  0.28308136  0.66291388    -0.61600
O511        O  0.79344066  0.19465392  0.63353127    -0.74100
O512        O  0.04187689  0.29234491  0.62117612    -0.72800
Cu513      Cu  0.01667400  0.22866150  0.69049347     1.04600
Cu514      Cu  0.08355113  0.24019740  0.63246482     1.04300
C515        C  0.00006882  0.30372446  0.64657119     0.93500
C516        C  0.76647517  0.16985960  0.65760469     0.92600
C517        C  0.76960228  0.29535149  0.70026503     0.84700
C518        C  0.99660758  0.18293728  0.60333913     0.91000
C519        C  0.90945533  0.09127377  0.59069230     0.80400
N520        N  0.92521456  0.13182767  0.58824493    -0.77900
C521        C  0.97814513  0.14290236  0.58020586     0.82900
N522        N  0.01661226  0.11235318  0.57333324    -0.77800
C523        C  0.00353629  0.07136330  0.57794611     0.83000
N524        N  0.94917096  0.06082235  0.58739145    -0.79500
C525        C  0.05200361  0.04031998  0.58062000    -0.02300
C526        C  0.05737476  0.43054285  0.72849769    -0.02300
N527        N  0.04001288  0.99099072  0.51804740    -0.03300
C528        C  0.12191816  0.01946665  0.51060726    -0.23800
C529        C  0.06961220  0.02524472  0.53092397    -0.00800
H530        H  0.15849577  0.03813225  0.51892484     0.13000
N531        N  0.01456168  0.97534447  0.55469754    -0.03300
C532        C  0.05021401  0.45627321  0.81671656    -0.23800
C533        C  0.03167386  0.45310191  0.77213639    -0.00800
H534        H  0.07383933  0.43293194  0.83178642     0.13000
C535        C  0.07437130  0.98506871  0.91319286    -0.00700
C536        C  0.12630763  0.00087048  0.90242156    -0.23600
H537        H  0.16158172  0.98231543  0.89046700     0.13000
C538        C  0.02880745  0.51983398  0.79664487    -0.00700
C539        C  0.04835681  0.49917412  0.83253166    -0.23600
H540        H  0.07073433  0.51355784  0.86146284     0.13000
C541        C  0.07518604  0.49417767  0.16465159    -0.00700
C542        C  0.12672389  0.51282939  0.15861809    -0.23600
H543        H  0.16411330  0.49707276  0.14607293     0.13000
C544        C  0.03800921  0.02937460  0.01121635    -0.00700
C545        C  0.05664988  0.00456800  0.04387713    -0.23600
H546        H  0.08051441  0.01537135  0.07347763     0.13000
C547        C  0.85625018  0.61292361  0.27813416     0.80400
N548        N  0.81680515  0.59373169  0.25018940    -0.77900
C549        C  0.76206341  0.59448267  0.26431002     0.82900
N550        N  0.74830870  0.61611163  0.30552623    -0.77800
C551        C  0.78656991  0.63796123  0.33157743     0.83000
N552        N  0.83994791  0.63530071  0.31767581    -0.79500
C553        C  0.85263702  0.87398393  0.48159605     0.80400
N554        N  0.83614600  0.83327178  0.47345323    -0.77900
C555        C  0.78234302  0.82164950  0.47361966     0.82900
N556        N  0.74356567  0.85179792  0.48392671    -0.77800
C557        C  0.75789472  0.89337263  0.49120758     0.83000
N558        N  0.81316412  0.90429520  0.48881378    -0.79500
C559        C  0.90984884  0.88286671  0.46517622     0.80400
N560        N  0.92600940  0.85925159  0.42639097    -0.77900
C561        C  0.97941285  0.85642490  0.41237046     0.83000
N562        N  0.01789687  0.87911049  0.43729580    -0.77800
C563        C  0.00410965  0.90189470  0.47761913     0.83000
N564        N  0.94940212  0.90302052  0.49203492    -0.79500
O565        O  0.97370776  0.78323810  0.40607855    -0.72700
O566        O  0.72686584  0.68259085  0.38174062    -0.73700
O567        O  0.72554538  0.76328816  0.44449162    -0.62300
O568        O  0.97640134  0.70657532  0.34806537    -0.70700
O569        O  0.04295335  0.73083660  0.30398090    -0.70300
O570        O  0.79139900  0.78791532  0.39998637    -0.61600
O571        O  0.79338045  0.71125263  0.34119835    -0.74100
O572        O  0.03988539  0.81135984  0.36463058    -0.72800
Cu573      Cu  0.01190228  0.72869760  0.40578435     1.04600
Cu574      Cu  0.08253634  0.75694453  0.36004632     1.04300
C575        C  0.99672339  0.81526837  0.39056290     0.93500
C576        C  0.76969972  0.67883368  0.35526933     0.92600
C577        C  0.76744399  0.78723717  0.43909273     0.84700
C578        C  0.00027991  0.70757182  0.30898125     0.91000
C579        C  0.91383496  0.62224774  0.26291122     0.80400
N580        N  0.93055782  0.66275619  0.27322947    -0.77900
C581        C  0.98446903  0.67418266  0.27367372     0.82900
N582        N  0.02292944  0.64422647  0.26224969    -0.77800
C583        C  0.00844456  0.60288898  0.25360213     0.83000
N584        N  0.95320291  0.59189467  0.25499108    -0.79500
C585        C  0.05431192  0.56950542  0.25347633    -0.02300
C586        C  0.05168569  0.91856163  0.50925687    -0.02300
N587        N  0.04395046  0.52241327  0.18900843    -0.03300
C588        C  0.12479879  0.55289917  0.18321253    -0.23800
C589        C  0.07224960  0.55677110  0.20341001    -0.00800
H590        H  0.16049861  0.57239184  0.19203600     0.13000
N591        N  0.01771992  0.50549879  0.22446212    -0.03300
C592        C  0.04516954  0.93051498  0.59959129    -0.23800
C593        C  0.02646697  0.93509306  0.55600712    -0.00800
H594        H  0.06745015  0.90383582  0.60942329     0.13000
C595        C  0.07181695  0.46947342  0.70374669    -0.00700
C596        C  0.12256241  0.48658644  0.69162498    -0.23600
H597        H  0.15978737  0.46942099  0.68152631     0.13000
C598        C  0.02731661  0.99832012  0.59312167    -0.00700
C599        C  0.04602736  0.97104610  0.62316275    -0.23600
H600        H  0.06959378  0.98011457  0.65326110     0.13000
C601        C  0.85323061  0.60095126  0.79277944     0.80400
N602        N  0.81341074  0.57859858  0.76811708    -0.77900
C603        C  0.75847595  0.58347512  0.78034690     0.82900
N604        N  0.74480963  0.61275251  0.81602626    -0.77800
C605        C  0.78380928  0.63736933  0.83847537     0.83000
N606        N  0.83734919  0.63026218  0.82695221    -0.79500
C607        C  0.85892397  0.89857478  0.92167975     0.80400
N608        N  0.84270771  0.85809132  0.92456794    -0.77900
C609        C  0.78929742  0.84691001  0.93041856     0.82900
N610        N  0.75095920  0.87803947  0.93519144    -0.77800
C611        C  0.76507972  0.91939026  0.93124217     0.83000
N612        N  0.81966187  0.92913577  0.92332345    -0.79500
C613        C  0.91472855  0.90353376  0.90083239     0.80400
N614        N  0.92879290  0.87306640  0.86729166    -0.77900
C615        C  0.98157935  0.86681981  0.85272415     0.83000
N616        N  0.02149264  0.89306752  0.87127484    -0.77800
C617        C  0.00967152  0.92310569  0.90646208     0.83000
N618        N  0.95563993  0.92750555  0.92186902    -0.79500
O619        O  0.97554205  0.79608332  0.86555833    -0.72700
O620        O  0.72806491  0.69276834  0.87766705    -0.73700
O621        O  0.73001817  0.78500102  0.91808842    -0.62300
O622        O  0.97408057  0.70974527  0.83025960    -0.70700
O623        O  0.03577406  0.72192026  0.77571563    -0.70300
O624        O  0.79818340  0.79517164  0.86837646    -0.61600
O625        O  0.79511753  0.70884811  0.82926422    -0.74100
O626        O  0.03785343  0.81267185  0.81333368    -0.72800
Cu627      Cu  0.01455932  0.74453738  0.87838961     1.04600
Cu628      Cu  0.08055948  0.75966621  0.82093850     1.04300
C629        C  0.99713732  0.82274413  0.84060447     0.93500
C630        C  0.76979076  0.68190312  0.85173650     0.92600
C631        C  0.77306627  0.80559022  0.90647263     0.84700
C632        C  0.99480391  0.70084247  0.79019228     0.91000
C633        C  0.91032866  0.60721359  0.77478187     0.80400
N634        N  0.92546331  0.64798697  0.77205663    -0.77900
C635        C  0.97882125  0.65987287  0.76701462     0.82900
N636        N  0.01825757  0.62984667  0.76388738    -0.77800
C637        C  0.00543003  0.58883946  0.76884224     0.83000
N638        N  0.95076251  0.57773495  0.77523360    -0.79500
C639        C  0.05316159  0.55816637  0.77546073    -0.02300
C640        C  0.05820499  0.94427837  0.93425853    -0.02300
N641        N  0.04088601  0.50071005  0.72266665    -0.03300
C642        C  0.12060901  0.52969363  0.70695522    -0.23800
C643        C  0.06894515  0.53661972  0.72803431    -0.00800
H644        H  0.15612967  0.55052100  0.71019607     0.13000
N645        N  0.01710313  0.49100071  0.76284408    -0.03300
C646        C  0.05422962  0.96280852  0.02389255    -0.23800
C647        C  0.03452858  0.96440333  0.98000244    -0.00800
H648        H  0.07600250  0.93684340  0.03589059     0.13000
C649        C  0.29233371  0.04778212  0.17555393    -0.00700
C650        C  0.26543040  0.06748572  0.14214005    -0.23600
H651        H  0.23840418  0.05208718  0.11682402     0.13000
C652        C  0.25410343  0.57746116  0.06274570    -0.00700
C653        C  0.20456329  0.55810486  0.07433199    -0.23600
H654        H  0.16834134  0.57324960  0.09019113     0.13000
C655        C  0.07624630  0.17268697  0.29146058     0.80400
N656        N  0.03451384  0.14823876  0.27223994    -0.77900
C657        C  0.98321269  0.14858518  0.29324153     0.82900
N658        N  0.97442500  0.17496640  0.33208230    -0.77800
C659        C  0.01438451  0.20155360  0.34943823     0.83000
N660        N  0.06490010  0.19958554  0.32909653    -0.79500
C661        C  0.07698042  0.45355065  0.45603958     0.80400
N662        N  0.06469036  0.41187966  0.45321241    -0.77900
C663        C  0.01348134  0.39758084  0.46228745     0.82900
N664        N  0.97360659  0.42599186  0.47544888    -0.77800
C665        C  0.98359275  0.46827268  0.47728241     0.83000
N666        N  0.03575767  0.48191785  0.46646523    -0.79500
C667        C  0.12798642  0.46411768  0.43113602     0.80400
N668        N  0.13877518  0.43843400  0.39228519    -0.77900
C669        C  0.18826807  0.43875944  0.37058362     0.83000
N670        N  0.22770970  0.46523968  0.38914764    -0.77800
C671        C  0.22110029  0.48876665  0.43038107     0.83000
N672        N  0.16982916  0.48799414  0.45128117    -0.79500
O673        O  0.21281328  0.36746311  0.36855121    -0.72700
O674        O  0.95990683  0.24798929  0.40103530    -0.73700
O675        O  0.96043402  0.33400653  0.45042808    -0.62300
O676        O  0.21041453  0.28417955  0.31824978    -0.70700
O677        O  0.22767641  0.30971441  0.25184224    -0.70300
O678        O  0.00836497  0.35674942  0.39204799    -0.61600
O679        O  0.00916475  0.27386819  0.34523757    -0.74100
O680        O  0.22754658  0.39747740  0.30432345    -0.72800
Cu681      Cu  0.26715634  0.32159888  0.35038861     1.04600
Cu682      Cu  0.28399781  0.35239964  0.28116565     1.04300
C683        C  0.20777348  0.39891171  0.34531871     0.93500
C684        C  0.99607016  0.24339182  0.36852559     0.92600
C685        C  0.99564709  0.35930661  0.43469526     0.84700
C686        C  0.20651730  0.28111332  0.27482631     0.91000
C687        C  0.12694935  0.18320388  0.26576804     0.80400
N688        N  0.13766150  0.22517732  0.26622181    -0.77900
C689        C  0.18707334  0.23987585  0.25268194     0.82900
N690        N  0.22660704  0.21129527  0.23909684    -0.77800
C691        C  0.22005129  0.16892939  0.24150549     0.83000
N692        N  0.16886395  0.15509242  0.25517689    -0.79500
C693        C  0.27390043  0.14134126  0.24317040    -0.02300
C694        C  0.27467894  0.50261289  0.45803200    -0.02300
N695        N  0.30881839  0.07834796  0.20638904    -0.03300
C696        C  0.26371428  0.11063887  0.15720376    -0.23800
C697        C  0.29120364  0.11599648  0.19794839    -0.00800
H698        H  0.23503775  0.13283395  0.14596817     0.13000
N699        N  0.29263628  0.07048092  0.24927184    -0.03300
C700        C  0.22034971  0.49973356  0.53857584    -0.23800
C701        C  0.26763434  0.50424722  0.51109171    -0.00800
H702        H  0.18677298  0.47754614  0.53188846     0.13000
C703        C  0.27882293  0.02626122  0.73137611    -0.00700
C704        C  0.32957558  0.04364371  0.71977593    -0.23600
H705        H  0.36572405  0.02711371  0.70571912     0.13000
C706        C  0.26402471  0.55977559  0.56227668    -0.00700
C707        C  0.21742945  0.53566974  0.57039162    -0.23600
H708        H  0.18123541  0.54580427  0.59063574     0.13000
C709        C  0.07163881  0.15695421  0.84460623     0.80400
N710        N  0.03208760  0.12997324  0.82673111    -0.77900
C711        C  0.97917798  0.13260084  0.84383825     0.82900
N712        N  0.96689119  0.16371518  0.87795732    -0.77800
C713        C  0.00570282  0.19209944  0.89418436     0.83000
N714        N  0.05774350  0.18769019  0.87767084    -0.79500
C715        C  0.07516592  0.45120492  0.96160329     0.80400
N716        N  0.06209589  0.41029229  0.96532087    -0.77900
C717        C  0.01080523  0.39799738  0.97712364     0.82900
N718        N  0.97201953  0.42799276  0.98673736    -0.77800
C719        C  0.98301277  0.46938046  0.98157084     0.83000
N720        N  0.03502709  0.48089885  0.96805315    -0.79500
C721        C  0.12861818  0.45850445  0.93907446     0.80400
N722        N  0.14410634  0.42781114  0.90615352    -0.77900
C723        C  0.19728152  0.42222674  0.89258311     0.83000
N724        N  0.23568665  0.44927643  0.91200297    -0.77800
C725        C  0.22197398  0.47988684  0.94630337     0.83000
N726        N  0.16794712  0.48365365  0.96032583    -0.79500
O727        O  0.19376330  0.35161969  0.90721076    -0.72700
O728        O  0.94951316  0.24568986  0.93463979    -0.73700
O729        O  0.95218411  0.33653305  0.97125948    -0.62300
O730        O  0.18969747  0.26532777  0.87093845    -0.70700
O731        O  0.25012825  0.27672529  0.81522964    -0.70300
O732        O  0.00948581  0.34835932  0.91356552    -0.61600
O733        O  0.00635636  0.26210301  0.87840653    -0.74100
O734        O  0.25422566  0.36770184  0.85342961    -0.72800
Cu735      Cu  0.23197120  0.29901707  0.91870095     1.04600
Cu736      Cu  0.29625411  0.31366879  0.85996722     1.04300
C737        C  0.21425112  0.37809141  0.88144828     0.93500
C738        C  0.98808017  0.23575091  0.90525643     0.92600
C739        C  0.99194444  0.35743517  0.95461851     0.84700
C740        C  0.20937169  0.25603578  0.83054923     0.91000
C741        C  0.12417194  0.16347620  0.82071437     0.80400
N742        N  0.13893015  0.20403699  0.81682547    -0.77900
C743        C  0.19159765  0.21535417  0.80772447     0.82900
N744        N  0.23035084  0.18470658  0.80128030    -0.77800
C745        C  0.21681676  0.14363567  0.80594214     0.83000
N746        N  0.16337211  0.13346307  0.81652064    -0.79500
C747        C  0.26257658  0.11161455  0.80985339    -0.02300
C748        C  0.26876616  0.49850148  0.97690504    -0.02300
N749        N  0.24906113  0.05705941  0.75277045    -0.03300
C750        C  0.32928153  0.08556978  0.73922237    -0.23800
C751        C  0.27797066  0.09236355  0.76099632    -0.00800
H752        H  0.36520702  0.10599069  0.74188263     0.13000
N753        N  0.22468733  0.04514856  0.79157248    -0.03300
C754        C  0.20524188  0.51731244  0.05154688    -0.23800
C755        C  0.25520079  0.51373264  0.02718135    -0.00800
H756        H  0.16970586  0.49662036  0.04728675     0.13000
C757        C  0.07184344  0.66235070  0.07858275     0.80400
N758        N  0.03177439  0.63604663  0.06001041    -0.77900
C759        C  0.97877546  0.63915006  0.07713387     0.82900
N760        N  0.96696375  0.67014299  0.11149252    -0.77800
C761        C  0.00598564  0.69801982  0.12822588     0.83000
N762        N  0.05806267  0.69314977  0.11182333    -0.79500
C763        C  0.07430901  0.95937901  0.19360778     0.80400
N764        N  0.06125929  0.91847935  0.19795644    -0.77900
C765        C  0.00952176  0.90613130  0.20819970     0.82900
N766        N  0.97018390  0.93595976  0.21503192    -0.77800
C767        C  0.98115561  0.97708480  0.20867882     0.83000
N768        N  0.03367765  0.98874560  0.19697872    -0.79500
C769        C  0.12789713  0.96616311  0.17145502     0.80400
N770        N  0.14272299  0.93495800  0.13895464    -0.77900
C771        C  0.19539538  0.92932562  0.12446104     0.83000
N772        N  0.23374564  0.95758830  0.14152357    -0.77800
C773        C  0.22083774  0.98870564  0.17560518     0.83000
N774        N  0.16746165  0.99211129  0.19157945    -0.79500
O775        O  0.19108213  0.85905995  0.14098715    -0.72700
O776        O  0.95128708  0.75178788  0.17043336    -0.73700
O777        O  0.95393078  0.84327311  0.20578381    -0.62300
O778        O  0.18908017  0.77172896  0.10690573    -0.70700
O779        O  0.25135540  0.78266490  0.05245268    -0.70300
O780        O  0.00707479  0.85529519  0.14560261    -0.61600
O781        O  0.00457452  0.76806519  0.11195943    -0.74100
O782        O  0.25375518  0.87423259  0.08848541    -0.72800
Cu783      Cu  0.22917182  0.80714587  0.15519530     1.04600
Cu784      Cu  0.29564226  0.82094240  0.09778983     1.04300
C785        C  0.21267969  0.88504211  0.11510570     0.93500
C786        C  0.98840141  0.74179989  0.13969105     0.92600
C787        C  0.99165507  0.86471417  0.18716368     0.84700
C788        C  0.20981970  0.76216542  0.06688805     0.91000
C789        C  0.12484469  0.66898728  0.05502085     0.80400
N790        N  0.13928762  0.70985394  0.05228445    -0.77900
C791        C  0.19165693  0.72170970  0.04315598     0.82900
N792        N  0.23025141  0.69125524  0.03517264    -0.77800
C793        C  0.21764029  0.64988791  0.03934369     0.83000
N794        N  0.16453714  0.63901688  0.05015394    -0.79500
C795        C  0.26607861  0.62032697  0.04449954    -0.02300
C796        C  0.26972055  0.01076824  0.20103880    -0.02300
N797        N  0.30636153  0.56424652  0.99982964    -0.03300
C798        C  0.27214218  0.60691855  0.95438805    -0.23800
C799        C  0.29230889  0.60395667  0.99790039    -0.00800
H800        H  0.24807237  0.63259772  0.94426108     0.13000
N801        N  0.28376927  0.54885564  0.03766797    -0.03300
C802        C  0.21658092  0.04386381  0.27685936    -0.23800
C803        C  0.26246394  0.03539581  0.24849891    -0.00800
H804        H  0.18022692  0.02414671  0.27948738     0.13000
C805        C  0.29366553  0.54837671  0.45602917    -0.00700
C806        C  0.26919941  0.58083977  0.43640569    -0.23600
H807        H  0.24177339  0.57722917  0.40777346     0.13000
C808        C  0.26755798  0.10311588  0.27203746    -0.00700
C809        C  0.22054646  0.08678321  0.29292670    -0.23600
H810        H  0.18768584  0.10452960  0.31097145     0.13000
C811        C  0.07403503  0.65202240  0.59146525     0.80400
N812        N  0.03500858  0.62985916  0.56610076    -0.77900
C813        C  0.98049975  0.63487956  0.57834790     0.82900
N814        N  0.96630929  0.66314075  0.61447355    -0.77800
C815        C  0.00430526  0.68782958  0.63715483     0.83000
N816        N  0.05786286  0.68163176  0.62551047    -0.79500
C817        C  0.07289262  0.93514430  0.73701779     0.80400
N818        N  0.05658385  0.89468207  0.73739141    -0.77900
C819        C  0.00379268  0.88395380  0.74513180     0.82900
N820        N  0.96680595  0.91512562  0.75605783    -0.77800
C821        C  0.98140199  0.95668485  0.75586653     0.83000
N822        N  0.03500377  0.96657106  0.74483936    -0.79500
C823        C  0.12763859  0.94074785  0.71615323     0.80400
N824        N  0.14447656  0.90988830  0.68382495    -0.77900
C825        C  0.19802359  0.90579755  0.67031911     0.83000
N826        N  0.23546553  0.93340959  0.68983034    -0.77800
C827        C  0.22009742  0.96314374  0.72408738     0.83000
N828        N  0.16578528  0.96650302  0.73731531    -0.79500
O829        O  0.19748184  0.83474817  0.68160824    -0.72700
O830        O  0.94597952  0.73843733  0.67947248    -0.73700
O831        O  0.94349747  0.82480285  0.72744933    -0.62300
O832        O  0.19976601  0.75108775  0.64008478    -0.70700
O833        O  0.26106404  0.76838285  0.58736844    -0.70300
O834        O  0.00580455  0.84237573  0.67563434    -0.61600
O835        O  0.00698355  0.75990011  0.62875396    -0.74100
O836        O  0.25996535  0.85559775  0.63169844    -0.72800
Cu837      Cu  0.23833538  0.78324617  0.69118719     1.04600
Cu838      Cu  0.30427264  0.80283337  0.63593331     1.04300
C839        C  0.21757336  0.86294106  0.65795478     0.93500
C840        C  0.98706093  0.73109545  0.65176871     0.92600
C841        C  0.98487919  0.84696936  0.71614237     0.84700
C842        C  0.21956449  0.74654261  0.59925152     0.91000
C843        C  0.13042432  0.65790056  0.57395437     0.80400
N844        N  0.14709394  0.69870245  0.57624124    -0.77900
C845        C  0.20015406  0.70974165  0.57028400     0.82900
N846        N  0.23709432  0.67888687  0.55987871    -0.77800
C847        C  0.22277212  0.63738272  0.55964116     0.83000
N848        N  0.16873485  0.62651972  0.56764209    -0.79500
C849        C  0.27149782  0.60714791  0.55732029    -0.02300
C850        C  0.26429230  0.98552433  0.75346936    -0.02300
N851        N  0.31084937  0.56361622  0.49697402    -0.03300
C852        C  0.27173252  0.61614221  0.46880742    -0.23800
C853        C  0.29576215  0.60310869  0.50778583    -0.00800
H854        H  0.24680719  0.64388979  0.46777339     0.13000
N855        N  0.29364007  0.53847172  0.52925043    -0.03300
C856        C  0.25267740  0.00589109  0.84297694    -0.23800
C857        C  0.23710628  0.00602264  0.79792211    -0.00800
H858        H  0.27108446  0.97989986  0.85769362     0.13000
C859        C  0.29297097  0.54005183  0.96240131    -0.00700
C860        C  0.27241021  0.56602068  0.93178578    -0.23600
H861        H  0.24854736  0.55573786  0.90209830     0.13000
C862        C  0.23644983  0.07177435  0.82740072    -0.00700
C863        C  0.25212964  0.04814977  0.86195712    -0.23600
H864        H  0.26968610  0.06034314  0.89402391     0.13000
C865        C  0.60405047  0.04424162  0.22361529    -0.00700
C866        C  0.64854967  0.06747001  0.20878443    -0.23600
H867        H  0.68364559  0.05568333  0.18819681     0.13000
C868        C  0.58600704  0.57316405  0.07768654    -0.00700
C869        C  0.53579679  0.55400144  0.08764383    -0.23600
H870        H  0.49942963  0.56921078  0.10324891     0.13000
C871        C  0.41361338  0.17857712  0.29229960     0.80400
N872        N  0.37110496  0.15191737  0.27771724    -0.77900
C873        C  0.32611371  0.16800107  0.25792308     0.82900
N874        N  0.32622395  0.20976199  0.25335930    -0.77800
C875        C  0.36551360  0.23646974  0.27050957     0.83000
N876        N  0.40871896  0.22062284  0.29036902    -0.79500
C877        C  0.41684289  0.45124534  0.45141311     0.80400
N878        N  0.41107085  0.42424735  0.41275117    -0.77900
C879        C  0.36585263  0.42535724  0.38715965     0.82900
N880        N  0.32513812  0.45156422  0.40220117    -0.77800
C881        C  0.32646257  0.47642089  0.44204313     0.83000
N882        N  0.37360085  0.47654716  0.46704530    -0.79500
C883        C  0.46087801  0.44062113  0.48162118     0.80400
N884        N  0.46510799  0.39882507  0.48536958    -0.77900
C885        C  0.50831705  0.38313635  0.50539797     0.83000
N886        N  0.54769385  0.41018398  0.52221195    -0.77800
C887        C  0.54834215  0.45175167  0.51575272     0.83000
N888        N  0.50407788  0.46727957  0.49458763    -0.79500
O889        O  0.53639423  0.31217687  0.51084626    -0.72700
O890        O  0.32272983  0.27909710  0.32862030    -0.73700
O891        O  0.32540924  0.35904561  0.37853484    -0.62300
O892        O  0.53475741  0.22705648  0.45940144    -0.70700
O893        O  0.53930104  0.25971588  0.39602244    -0.70300
O894        O  0.34011895  0.39064256  0.31522312    -0.61600
O895        O  0.33976944  0.30707222  0.26326631    -0.74100
O896        O  0.54703696  0.34029973  0.44489916    -0.72800
Cu897      Cu  0.59209651  0.26705871  0.48950498     1.04600
Cu898      Cu  0.60001549  0.29708975  0.41896328     1.04300
C899        C  0.52857720  0.34216475  0.48606370     0.93500
C900        C  0.34511652  0.27736500  0.28878476     0.92600
C901        C  0.34724378  0.38859762  0.35793638     0.84700
C902        C  0.52316207  0.22886431  0.41737835     0.91000
C903        C  0.45709170  0.16714520  0.32255738     0.80400
N904        N  0.46156876  0.19290768  0.36210688    -0.77900
C905        C  0.50586303  0.19140474  0.38862152     0.82900
N906        N  0.54721846  0.16532550  0.37392069    -0.77800
C907        C  0.54701673  0.14169589  0.33301003     0.83000
N908        N  0.50077548  0.14236364  0.30701399    -0.79500
C909        C  0.59793131  0.11429833  0.31811424    -0.02300
C910        C  0.60364473  0.47630053  0.52573993    -0.02300
N911        N  0.57539241  0.06899666  0.25418106    -0.03300
C912        C  0.64568633  0.10698732  0.23434244    -0.23800
C913        C  0.60085656  0.10538612  0.26511591    -0.00800
H914        H  0.67805795  0.13061118  0.23492331     0.13000
N915        N  0.56135526  0.04890746  0.29142955    -0.03300
C916        C  0.56108579  0.50450674  0.60642827    -0.23800
C917        C  0.60480812  0.49829815  0.57475958    -0.00800
H918        H  0.52676577  0.48305352  0.61027221     0.13000
C919        C  0.62181818  0.02858634  0.73305850    -0.00700
C920        C  0.59921253  0.05234541  0.70114650    -0.23600
H921        H  0.57431242  0.04024722  0.67256813     0.13000
C922        C  0.60363237  0.56603715  0.59818980    -0.00700
C923        C  0.56021561  0.54778464  0.62124648    -0.23600
H924        H  0.52579495  0.56406177  0.63882441     0.13000
C925        C  0.40199647  0.15586394  0.84400790     0.80400
N926        N  0.36331418  0.12900565  0.82441651    -0.77900
C927        C  0.30939015  0.13161786  0.83933628     0.82900
N928        N  0.29509581  0.16285089  0.87260608    -0.77800
C929        C  0.33270481  0.19165394  0.88981869     0.83000
N930        N  0.38573534  0.18716210  0.87569153    -0.79500
C931        C  0.40759555  0.44750013  0.96584059     0.80400
N932        N  0.39211024  0.40644474  0.96496399    -0.77900
C933        C  0.33908067  0.39496307  0.97234355     0.82900
N934        N  0.30076005  0.42542789  0.98042251    -0.77800
C935        C  0.31460930  0.46666276  0.97843323     0.83000
N936        N  0.36848727  0.47763003  0.97080784    -0.79500
C937        C  0.46248685  0.45573904  0.94689696     0.80400
N938        N  0.47870035  0.42776141  0.91181530    -0.77900
C939        C  0.53206577  0.42268926  0.89944605     0.83000
N940        N  0.57004609  0.44850634  0.92159296    -0.77800
C941        C  0.55532702  0.47749221  0.95733840     0.83000
N942        N  0.50092774  0.47986930  0.97077212    -0.79500
O943        O  0.52655459  0.35182321  0.91190260    -0.72700
O944        O  0.27371753  0.24558835  0.92601776    -0.73700
O945        O  0.27864688  0.33533671  0.96313717    -0.62300
O946        O  0.52129670  0.26554285  0.87396774    -0.70700
O947        O  0.58243553  0.27686556  0.81882675    -0.70300
O948        O  0.33908933  0.34703403  0.90747930    -0.61600
O949        O  0.33411434  0.26119159  0.87190563    -0.74100
O950        O  0.58659876  0.36829742  0.85790468    -0.72800
Cu951      Cu  0.56375928  0.29881937  0.92235080     1.04600
Cu952      Cu  0.62825369  0.31452189  0.86411445     1.04300
C953        C  0.54771684  0.37866572  0.88686537     0.93500
C954        C  0.31411293  0.23528737  0.89858980     0.92600
C955        C  0.32015187  0.35545209  0.94817780     0.84700
C956        C  0.54144107  0.25599452  0.83376562     0.91000
C957        C  0.45633267  0.16246230  0.82235933     0.80400
N958        N  0.47098717  0.20332457  0.81987961    -0.77900
C959        C  0.52327873  0.21513082  0.81053616     0.82900
N960        N  0.56171014  0.18450941  0.80229646    -0.77800
C961        C  0.54906461  0.14297533  0.80609001     0.83000
N962        N  0.49586875  0.13220618  0.81716042    -0.79500
C963        C  0.59786176  0.11313991  0.81062872    -0.02300
C964        C  0.60159657  0.49590230  0.98902137    -0.02300
N965        N  0.63665550  0.05505618  0.76832981    -0.03300
C966        C  0.59910043  0.09427942  0.72089161    -0.23800
C967        C  0.62150698  0.09415441  0.76405017    -0.00800
H968        H  0.57422721  0.11896736  0.70958204     0.13000
N969        N  0.61689895  0.04199463  0.80830266    -0.03300
C970        C  0.53608310  0.51400473  0.06295036    -0.23800
C971        C  0.58685541  0.51006632  0.03965612    -0.00800
H972        H  0.49977691  0.49456227  0.05659395     0.13000
C973        C  0.40236364  0.66305876  0.08881171     0.80400
N974        N  0.36484423  0.63809173  0.06508291    -0.77900
C975        C  0.30965003  0.64255774  0.07540779     0.82900
N976        N  0.29314372  0.67328446  0.10827738    -0.77800
C977        C  0.33005966  0.70006642  0.12991425     0.83000
N978        N  0.38423496  0.69411267  0.12024274    -0.79500
C979        C  0.40564708  0.95494781  0.20421142     0.80400
N980        N  0.38740081  0.91480682  0.20589186    -0.77900
C981        C  0.33326088  0.90541128  0.20936570     0.82900
N982        N  0.29670696  0.93731586  0.21148984    -0.77800
C983        C  0.31348879  0.97781705  0.20744237     0.83000
N984        N  0.36863600  0.98653439  0.20321341    -0.79500
C985        C  0.46305379  0.95936240  0.18929463     0.80400
N986        N  0.48102142  0.92896667  0.15712827    -0.77900
C987        C  0.53513692  0.92261069  0.14820694     0.83000
N988        N  0.57195463  0.94781142  0.17183051    -0.77800
C989        C  0.55549468  0.97744717  0.20585167     0.83000
N990        N  0.50030994  0.98290884  0.21500579    -0.79500
O991        O  0.53137366  0.85313253  0.16403825    -0.72700
O992        O  0.27136998  0.75449164  0.16505665    -0.73700
O993        O  0.27331153  0.84516003  0.20030891    -0.62300
O994        O  0.52865275  0.76748030  0.12829150    -0.70700
O995        O  0.58942473  0.77954324  0.07301597    -0.70300
O996        O  0.33598151  0.85576370  0.14595775    -0.61600
O997        O  0.33369341  0.76935181  0.11204690    -0.74100
O998        O  0.59246715  0.86908669  0.11048286    -0.72800
Cu999      Cu  0.56994571  0.80164495  0.17653253     1.04600
Cu1000     Cu  0.63474855  0.81634992  0.11813112     1.04300
C1001       C  0.55181745  0.87906361  0.13773756     0.93500
C1002       C  0.31265660  0.74388790  0.13868227     0.92600
C1003       C  0.31516936  0.86523482  0.18589721     0.84700
C1004       C  0.54802069  0.75914190  0.08763165     0.91000
C1005       C  0.45884708  0.66885502  0.07112179     0.80400
N1006       N  0.47547056  0.70943423  0.07051635    -0.77900
C1007       C  0.52852928  0.71995993  0.06280188     0.82900
N1008       N  0.56576096  0.68868242  0.05452858    -0.77800
C1009       C  0.55121847  0.64748232  0.05706318     0.83000
N1010       N  0.49711217  0.63760232  0.06613121    -0.79500
C1011       C  0.59871076  0.61667757  0.06103679    -0.02300
C1012       C  0.59920650  0.99899827  0.23692122    -0.02300
N1013       N  0.63834021  0.56128998  0.01462609    -0.03300
C1014       C  0.60487747  0.60550616  0.97041879    -0.23800
C1015       C  0.62425100  0.60111274  0.01388761    -0.00800
H1016       H  0.58147086  0.63171665  0.96081544     0.13000
N1017       N  0.61557205  0.54485419  0.05178924    -0.03300
C1018       C  0.60407426  0.00253603  0.32695856    -0.23800
C1019       C  0.57747303  0.00923006  0.28666479    -0.00800
H1020       H  0.62988533  0.97601161  0.33179085     0.13000
C1021       C  0.61569901  0.51579922  0.50055655    -0.00700
C1022       C  0.58503366  0.53631867  0.47042214    -0.23600
H1023       H  0.55502350  0.52218325  0.44681880     0.13000
C1024       C  0.58028611  0.06995964  0.32908552    -0.00700
C1025       C  0.60656437  0.04151018  0.35367762    -0.23600
H1026       H  0.63409423  0.04926337  0.38174397     0.13000
C1027       C  0.40817202  0.64107123  0.60740277     0.80400
N1028       N  0.36968958  0.61894908  0.58184069    -0.77900
C1029       C  0.31485212  0.62450182  0.59199369     0.82900
N1030       N  0.29967666  0.65360727  0.62737410    -0.77800
C1031       C  0.33776966  0.67738332  0.65177812     0.83000
N1032       N  0.39156016  0.67042160  0.64139516    -0.79500
C1033       C  0.40457520  0.93652554  0.74702809     0.80400
N1034       N  0.38996116  0.89537808  0.74639461    -0.77900
C1035       C  0.33730946  0.88290504  0.75298699     0.82900
N1036       N  0.29824559  0.91314698  0.76128698    -0.77800
C1037       C  0.31127020  0.95510403  0.76102020     0.83000
N1038       N  0.36488131  0.96632483  0.75296705    -0.79500
C1039       C  0.45706898  0.94444462  0.72353967     0.80400
N1040       N  0.46973710  0.91604810  0.68766851    -0.77900
C1041       C  0.52117087  0.91239051  0.66968679     0.83000
N1042       N  0.56084145  0.93936928  0.68762121    -0.77800
C1043       C  0.54987005  0.96813466  0.72454684     0.83000
N1044       N  0.49748261  0.96973045  0.74300354    -0.79500
O1045       O  0.52201442  0.84036188  0.67849467    -0.72700
O1046       O  0.28247078  0.72996461  0.69548583    -0.73700
O1047       O  0.28060870  0.82013366  0.73959244    -0.62300
O1048       O  0.52165224  0.75477978  0.63699242    -0.70700
O1049       O  0.57625673  0.77009832  0.57896547    -0.70300
O1050       O  0.34337781  0.83522003  0.68715545    -0.61600
O1051       O  0.34399079  0.74971164  0.64428657    -0.74100
O1052       O  0.57335608  0.86114980  0.62100127    -0.72800
Cu1053     Cu  0.56590590  0.78869877  0.68328925     1.04600
Cu1054     Cu  0.62200772  0.80993158  0.62210212     1.04300
C1055       C  0.53768793  0.86904718  0.65343824     0.93500
C1056       C  0.32258904  0.72126587  0.66709818     0.92600
C1057       C  0.32117993  0.84272653  0.72698083     0.84700
C1058       C  0.53942265  0.74658311  0.59588040     0.91000
C1059       C  0.46220059  0.64955507  0.58723506     0.80400
N1060       N  0.47338623  0.69077712  0.58370177    -0.77900
C1061       C  0.52434533  0.70466806  0.57365042     0.82900
N1062       N  0.56491102  0.67569909  0.56581787    -0.77800
C1063       C  0.55553748  0.63375270  0.57027948     0.83000
N1064       N  0.50361725  0.62082592  0.58211792    -0.79500
C1065       C  0.60637788  0.60540665  0.57168743    -0.02300
C1066       C  0.59942784  0.98801676  0.75146620    -0.02300
N1067       N  0.63851884  0.54490709  0.52973854    -0.03300
C1068       C  0.58896213  0.57946774  0.48528454    -0.23800
C1069       C  0.62126404  0.58319239  0.52416267    -0.00800
H1070       H  0.56143382  0.60314633  0.47531212     0.13000
N1071       N  0.63016225  0.53524241  0.57339121    -0.03300
C1072       C  0.54030785  0.01099260  0.82798820    -0.23800
C1073       C  0.58897988  0.00607589  0.80167826    -0.00800
H1074       H  0.50486518  0.99011839  0.82672940     0.13000
C1075       C  0.62555823  0.53814667  0.97632149    -0.00700
C1076       C  0.60564512  0.56517064  0.94642424    -0.23600
H1077       H  0.58288701  0.55589920  0.91575563     0.13000
C1078       C  0.58779179  0.07169293  0.83234153    -0.00700
C1079       C  0.53961219  0.05293745  0.84758892    -0.23600
H1080       H  0.50401265  0.06875917  0.86356226     0.13000
C1081       C  0.93758327  0.04797005  0.18587592    -0.00700
C1082       C  0.98343749  0.06806311  0.16819620    -0.23600
H1083       H  0.01837794  0.05321341  0.14987236     0.13000
C1084       C  0.91009800  0.57661270  0.06535656    -0.00700
C1085       C  0.93530170  0.55086311  0.09399270    -0.23600
H1086       H  0.96106115  0.56132227  0.12252627     0.13000
C1087       C  0.74228098  0.16239347  0.33206515     0.80400
N1088       N  0.70109921  0.13569776  0.31554245    -0.77900
C1089       C  0.65291936  0.13168574  0.34051909     0.82900
N1090       N  0.64863713  0.15432827  0.38219835    -0.77800
C1091       C  0.68666372  0.18367702  0.39703601     0.83000
N1092       N  0.73303724  0.18758200  0.37141229    -0.79500
C1093       C  0.74449967  0.43485804  0.48352155     0.80400
N1094       N  0.73635338  0.39299689  0.48601642    -0.77900
C1095       C  0.69035415  0.37818048  0.50603628     0.82900
N1096       N  0.65137989  0.40604114  0.52266999    -0.77800
C1097       C  0.65555659  0.44783682  0.51741821     0.83000
N1098       N  0.70328064  0.46222250  0.49768741    -0.79500
C1099       C  0.79278680  0.44691070  0.45610175     0.80400
N1100       N  0.80515586  0.42053333  0.41848326    -0.77900
C1101       C  0.85561456  0.42060114  0.39786642     0.83000
N1102       N  0.89425045  0.44880875  0.41453540    -0.77800
C1103       C  0.88403469  0.47469015  0.45330520     0.83000
N1104       N  0.83296726  0.47302436  0.47448410    -0.79500
O1105       O  0.86532630  0.34989187  0.40645999    -0.72700
O1106       O  0.64848613  0.22354993  0.46388642    -0.73700
O1107       O  0.64989325  0.31004239  0.51345102    -0.62300
O1108       O  0.86373431  0.26885196  0.36092345    -0.70700
O1109       O  0.91256830  0.28948534  0.30189880    -0.70300
O1110       O  0.66016888  0.33328312  0.44495286    -0.61600
O1111       O  0.65277288  0.25174525  0.39772838    -0.74100
O1112       O  0.91293424  0.37478087  0.34906909    -0.72800
Cu1113     Cu  0.91099238  0.29933697  0.40677470     1.04600
Cu1114     Cu  0.96249949  0.32450760  0.34505352     1.04300
C1115       C  0.87660970  0.37935857  0.38130527     0.93500
C1116       C  0.66426371  0.22210660  0.42188336     0.92600
C1117       C  0.66916017  0.33704835  0.48760373     0.84700
C1118       C  0.87514851  0.26622467  0.31820778     0.91000
C1119       C  0.79104405  0.17356954  0.30418820     0.80400
N1120       N  0.80329373  0.21518160  0.30531345    -0.77900
C1121       C  0.85336132  0.22915908  0.29151124     0.82900
N1122       N  0.89179718  0.20070757  0.27527531    -0.77800
C1123       C  0.88212158  0.15877714  0.27575888     0.83000
N1124       N  0.83139523  0.14529048  0.29099428    -0.79500
C1125       C  0.93153005  0.12893606  0.26961069    -0.02300
C1126       C  0.93292336  0.49715913  0.47801396    -0.02300
N1127       N  0.90975367  0.07648739  0.21273770    -0.03300
C1128       C  0.98262014  0.10975253  0.18872405    -0.23800
C1129       C  0.93668327  0.11289265  0.21843503    -0.00800
H1130       H  0.01686481  0.13174115  0.18798099     0.13000
N1131       N  0.89539111  0.06193794  0.25340110    -0.03300
C1132       C  0.93589724  0.50927435  0.56852828    -0.23800
C1133       C  0.91251716  0.51291787  0.52647081    -0.00800
H1134       H  0.96168449  0.48387808  0.57689829     0.13000
C1135       C  0.94456470  0.03011767  0.73387382    -0.00700
C1136       C  0.99303949  0.04943458  0.72009769    -0.23600
H1137       H  0.02957507  0.03417838  0.70510814     0.13000
C1138       C  0.91061327  0.57591274  0.56312796    -0.00700
C1139       C  0.93430193  0.54964613  0.59225613    -0.23600
H1140       H  0.95897771  0.55975194  0.62153822     0.13000
C1141       C  0.73607326  0.15821555  0.84743303     0.80400
N1142       N  0.69779166  0.13259669  0.82545821    -0.77900
C1143       C  0.64322690  0.13620792  0.83849899     0.82900
N1144       N  0.62807363  0.16643523  0.87215123    -0.77800
C1145       C  0.66554259  0.19388992  0.89154084     0.83000
N1146       N  0.71915384  0.18903038  0.87942588    -0.79500
C1147       C  0.74019294  0.44401262  0.97038076     0.80400
N1148       N  0.72439119  0.40323495  0.97043459    -0.77900
C1149       C  0.67178780  0.39215315  0.97968327     0.82900
N1150       N  0.63427590  0.42282214  0.99051348    -0.77800
C1151       C  0.64820048  0.46408817  0.98895335     0.83000
N1152       N  0.70163836  0.47463800  0.97810071    -0.79500
C1153       C  0.79419059  0.45119503  0.94861815     0.80400
N1154       N  0.80982717  0.42148842  0.91488287    -0.77900
C1155       C  0.86271290  0.41779052  0.89987790     0.83000
N1156       N  0.90062645  0.44574172  0.91812278    -0.77800
C1157       C  0.88673336  0.47532227  0.95302744     0.83000
N1158       N  0.83303758  0.47739118  0.96887828    -0.79500
O1159       O  0.86424013  0.34863230  0.91690864    -0.72700
O1160       O  0.60578569  0.24597935  0.92843388    -0.73700
O1161       O  0.60991289  0.33381739  0.96794556    -0.62300
O1162       O  0.86223685  0.26317287  0.88226100    -0.70700
O1163       O  0.91899070  0.27619937  0.82452875    -0.70300
O1164       O  0.66984399  0.34745684  0.91258364    -0.61600
O1165       O  0.66706936  0.26320358  0.87561631    -0.74100
O1166       O  0.92155423  0.36559283  0.86115691    -0.72800
Cu1167     Cu  0.90527502  0.29801163  0.92837066     1.04600
Cu1168     Cu  0.96600765  0.31356140  0.86746889     1.04300
C1169       C  0.88181741  0.37476263  0.88962369     0.93500
C1170       C  0.64706580  0.23688966  0.90158938     0.92600
C1171       C  0.65147967  0.35419516  0.95370088     0.84700
C1172       C  0.87922507  0.25526290  0.84089638     0.91000
C1173       C  0.79148981  0.16430729  0.82811373     0.80400
N1174       N  0.80720014  0.20488137  0.82565283    -0.77900
C1175       C  0.86009579  0.21568332  0.81730253     0.82900
N1176       N  0.89805916  0.18482405  0.81037976    -0.77800
C1177       C  0.88422307  0.14393062  0.81490486     0.83000
N1178       N  0.83038047  0.13369850  0.82453574    -0.79500
C1179       C  0.93075704  0.11226421  0.81628162    -0.02300
C1180       C  0.93301950  0.49822641  0.98035516    -0.02300
N1181       N  0.91479661  0.05912807  0.75838662    -0.03300
C1182       C  0.99143825  0.09105181  0.74044937    -0.23800
C1183       C  0.94235204  0.09507594  0.76613329    -0.00800
H1184       H  0.02669417  0.11210804  0.74293789     0.13000
N1185       N  0.89472139  0.04505269  0.79781776    -0.03300
C1186       C  0.93589064  0.51028502  0.07062912    -0.23800
C1187       C  0.91121488  0.51330794  0.02878839    -0.00800
H1188       H  0.96234168  0.48514379  0.07863950     0.13000
C1189       C  0.73737256  0.65936921  0.09884255     0.80400
N1190       N  0.69823910  0.63438527  0.07742824    -0.77900
C1191       C  0.64402734  0.63779859  0.09133112     0.82900
N1192       N  0.62987243  0.66806101  0.12561948    -0.77800
C1193       C  0.66852521  0.69465142  0.14552465     0.83000
N1194       N  0.72183603  0.68926181  0.13236176    -0.79500
C1195       C  0.74032157  0.95192493  0.21146053     0.80400
N1196       N  0.72783407  0.91124079  0.21680442    -0.77900
C1197       C  0.67723548  0.89904293  0.23040109     0.82900
N1198       N  0.63921987  0.92923545  0.24178252    -0.77800
C1199       C  0.64981820  0.97059385  0.23587798     0.83000
N1200       N  0.70062373  0.98189366  0.21948158    -0.79500
C1201       C  0.79121306  0.95822421  0.18495198     0.80400
N1202       N  0.80479993  0.92635493  0.15282539    -0.77900
C1203       C  0.85653588  0.92211604  0.13501295     0.83000
N1204       N  0.89524602  0.95115389  0.14904591    -0.77800
C1205       C  0.88361588  0.98231651  0.18276166     0.83000
N1206       N  0.83120835  0.98539823  0.20115401    -0.79500
O1207       O  0.86188137  0.85391535  0.15524253    -0.72700
O1208       O  0.61202159  0.74877151  0.18409084    -0.73700
O1209       O  0.61558830  0.83913056  0.22170513    -0.62300
O1210       O  0.85972378  0.76846378  0.12219172    -0.70700
O1211       O  0.91284596  0.78048543  0.06190240    -0.70300
O1212       O  0.67632654  0.85017953  0.16614844    -0.61600
O1213       O  0.67291568  0.76457329  0.13041196    -0.74100
O1214       O  0.91488665  0.86981436  0.09636389    -0.72800
Cu1215     Cu  0.90517634  0.80385199  0.16563390     1.04600
Cu1216     Cu  0.96169218  0.81889738  0.10196594     1.04300
C1217       C  0.87647239  0.87918672  0.12603891     0.93500
C1218       C  0.65212485  0.73845557  0.15638651     0.92600
C1219       C  0.65719337  0.85922270  0.20674561     0.84700
C1220       C  0.87404129  0.76005948  0.08027891     0.91000
C1221       C  0.79014898  0.66741305  0.07590816     0.80400
N1222       N  0.80288875  0.70829492  0.07201205    -0.77900
C1223       C  0.85362087  0.72034937  0.05828560     0.82900
N1224       N  0.89214726  0.69051473  0.04724151    -0.77800
C1225       C  0.88143066  0.64942804  0.05301728     0.83000
N1226       N  0.82996048  0.63785263  0.06791213    -0.79500
C1227       C  0.92971214  0.61910553  0.05011372    -0.02300
C1228       C  0.93142224  0.00587963  0.20684938    -0.02300
N1229       N  0.91174268  0.56904518  0.98970549    -0.03300
C1230       C  0.98652201  0.60326106  0.97119600    -0.23800
C1231       C  0.93888309  0.60503374  0.99882504    -0.00800
H1232       H  0.02112444  0.62503045  0.97353535     0.13000
N1233       N  0.89440113  0.55252286  0.02858210    -0.03300
C1234       C  0.93978941  0.02191999  0.29620953    -0.23800
C1235       C  0.91245048  0.02305944  0.25522128    -0.00800
H1236       H  0.96668383  0.99717861  0.30459781     0.13000
C1237       C  0.94160620  0.54043612  0.45935432    -0.00700
C1238       C  0.98986821  0.56047820  0.44527974    -0.23600
H1239       H  0.02435674  0.54600554  0.42600653     0.13000
C1240       C  0.91374935  0.08745752  0.28797614    -0.00700
C1241       C  0.94087136  0.06334469  0.31710472    -0.23600
H1242       H  0.96855341  0.07508532  0.34384357     0.13000
C1243       C  0.74277483  0.66217784  0.58721759     0.80400
N1244       N  0.70490479  0.63289990  0.57103062    -0.77900
C1245       C  0.65404801  0.63179268  0.59225755     0.82900
N1246       N  0.64202424  0.66041313  0.62851807    -0.77800
C1247       C  0.67807222  0.69152980  0.64199517     0.83000
N1248       N  0.72843367  0.69150907  0.62166498    -0.79500
C1249       C  0.73930116  0.93717769  0.73505044     0.80400
N1250       N  0.72336354  0.89627157  0.73094652    -0.77900
C1251       C  0.67049223  0.88481649  0.73785601     0.82900
N1252       N  0.63257942  0.91488076  0.74938638    -0.77800
C1253       C  0.64632001  0.95634387  0.75144284     0.83000
N1254       N  0.70037689  0.96759735  0.74359911    -0.79500
C1255       C  0.79439428  0.94544669  0.71589656     0.80400
N1256       N  0.81023150  0.91885375  0.67925127    -0.77900
C1257       C  0.86342214  0.91562878  0.66488648     0.83000
N1258       N  0.90148962  0.94096915  0.68700018    -0.77800
C1259       C  0.88741999  0.96686491  0.72508071     0.83000
N1260       N  0.83341342  0.96841232  0.74013415    -0.79500
O1261       O  0.86124840  0.84377429  0.67062044    -0.72700
O1262       O  0.61438972  0.73805209  0.68360124    -0.73700
O1263       O  0.61341415  0.82421067  0.72667911    -0.62300
O1264       O  0.86286023  0.76211113  0.62520068    -0.70700
O1265       O  0.92365019  0.78108251  0.57289557    -0.70300
O1266       O  0.66464369  0.84423461  0.66853843    -0.61600
O1267       O  0.66842392  0.76122481  0.62900207    -0.74100
O1268       O  0.92345225  0.86680665  0.62175990    -0.72800
Cu1269     Cu  0.90146475  0.79149938  0.67742166     1.04600
Cu1270     Cu  0.96708249  0.81329215  0.62294628     1.04300
C1271       C  0.88167987  0.87319804  0.64888510     0.93500
C1272       C  0.65445562  0.73276790  0.65461544     0.92600
C1273       C  0.65080346  0.84761263  0.71086709     0.84700
C1274       C  0.88240251  0.75874180  0.58432589     0.91000
C1275       C  0.79524770  0.66956722  0.56370009     0.80400
N1276       N  0.81062245  0.71041832  0.56274973    -0.77900
C1277       C  0.86368566  0.72182146  0.55540027     0.82900
N1278       N  0.90168168  0.69114229  0.54636971    -0.77800
C1279       C  0.88767795  0.64989772  0.54852394     0.83000
N1280       N  0.83419753  0.63930010  0.55813713    -0.79500
C1281       C  0.93338785  0.61759279  0.54805518    -0.02300
C1282       C  0.93373393  0.98798326  0.75370482    -0.02300
N1283       N  0.91442671  0.56841613  0.48733965    -0.03300
C1284       C  0.99179524  0.60032760  0.47032458    -0.23800
C1285       C  0.94389826  0.60318877  0.49728858    -0.00800
H1286       H  0.02795119  0.62046490  0.47414547     0.13000
N1287       N  0.89586346  0.55210520  0.52599673    -0.03300
C1288       C  0.93433600  0.00533693  0.84365262    -0.23800
C1289       C  0.91082979  0.00593855  0.80098671    -0.00800
H1290       H  0.96077475  0.98119544  0.85352343     0.13000
C1291       C  0.94063274  0.54163782  0.96226977    -0.00700
C1292       C  0.98774478  0.56262739  0.94791416    -0.23600
H1293       H  0.02344193  0.54871394  0.93002280     0.13000
C1294       C  0.90886719  0.07108161  0.83374354    -0.00700
C1295       C  0.93277864  0.04686541  0.86468339    -0.23600
H1296       H  0.95757890  0.05876873  0.89332819     0.13000
loop_ 
_geom_bond_atom_site_label_1 
_geom_bond_atom_site_label_2 
_geom_bond_distance 
_geom_bond_site_symmetry_2 
_ccdc_geom_bond_type 
C1            N2   1.378       .  A
C1            N6   1.357       .  A
C1           C33   1.500       .  S
N2            C3   1.387       .  A
C3            N4   1.367       .  A
C3          C471   1.549   1_554  S
N4            C5   1.347       .  A
C5            N6   1.336       .  A
C5           C30   1.468       .  S
C7            N8   1.358       .  A
C7           N12   1.378       .  A
C7           C13   1.501       .  S
N8            C9   1.338       .  A
C9           N10   1.348       .  A
C9           C31   1.464       .  S
N10          C11   1.364       .  A
C11          N12   1.386       .  A
C11         C472   1.546       .  S
C13          N14   1.357       .  A
C13          N18   1.379       .  A
N14          C15   1.338       .  A
C15          N16   1.344       .  A
C15          C29   1.456       .  S
N16          C17   1.360       .  A
C17          N18   1.388       .  A
C17          C40   1.550       .  S
O19         Cu27   2.015       .  S
O19          C29   1.277       .  A
O20        Cu459   2.036       .  S
O20          C30   1.280       .  A
O21        Cu459   2.029       .  S
O21          C31   1.279       .  A
O22         Cu27   2.002       .  S
O22          C32   1.275       .  A
O23         Cu28   1.963       .  S
O23          C32   1.274       .  A
O24        Cu460   1.982       .  S
O24          C31   1.276       .  A
O25        Cu460   1.984       .  S
O25          C30   1.276       .  A
O26         Cu28   1.982       .  S
O26          C29   1.276       .  A
Cu27        O236   1.990       .  S
Cu27        O237   1.979       .  S
Cu27        Cu28   2.374       .  S
Cu28        O240   2.026       .  S
Cu28        O241   2.044   1_554  S
C32          C35   1.445       .  S
C33          N34   1.353       .  A
C33          N38   1.374       .  A
N34          C35   1.336       .  A
C35          N36   1.345       .  A
N36          C37   1.359       .  A
C37          N38   1.390       .  A
C37          C39   1.539   1_554  S
C39          C43   1.530       .  S
C39         C219   1.558       .  S
C39         C112   1.536       .  S
C40          C47   1.538       .  S
C40         C227   1.559       .  S
C40         C109   1.548       .  S
N41          C43   1.328       .  A
N41         C103   1.325   1_545  A
N41          N45   1.362       .  S
C42          C43   1.389       .  A
C42         C104   1.401       .  A
C42          H44   1.078       .  S
N45         C215   1.325   1_545  A
N45         C112   1.326       .  A
C46          C47   1.391       .  A
C46          C53   1.404       .  A
C46          H48   1.083       .  S
C47         N159   1.323       .  A
C49          N95   1.323       .  A
C49         C154   1.537       .  S
C49          C50   1.392       .  A
C50          C96   1.403   1_565  A
C50          H51   1.082       .  S
C52         N159   1.324       .  A
C52         C153   1.538       .  S
C52          C53   1.392       .  A
C53          H54   1.083       .  S
C55          N56   1.384       .  A
C55          N60   1.356       .  A
C55          C87   1.504       .  S
N56          C57   1.389       .  A
C57          N58   1.366       .  A
C57         C525   1.566       .  S
N58          C59   1.350       .  A
C59          N60   1.336       .  A
C59          C84   1.467       .  S
C61          N62   1.360       .  A
C61          N66   1.382       .  A
C61          C67   1.508       .  S
N62          C63   1.340       .  A
C63          N64   1.346       .  A
C63          C85   1.465       .  S
N64          C65   1.362       .  A
C65          N66   1.390       .  A
C65         C526   1.553       .  S
C67          N68   1.357       .  A
C67          N72   1.380       .  A
N68          C69   1.339       .  A
C69          N70   1.349       .  A
C69          C83   1.464       .  S
N70          C71   1.364       .  A
C71          N72   1.389       .  A
C71          C94   1.556       .  S
O73         Cu81   2.023       .  S
O73          C83   1.277       .  A
O74        Cu513   2.024       .  S
O74          C84   1.277       .  A
O75        Cu513   2.027       .  S
O75          C85   1.279       .  A
O76         Cu81   2.016       .  S
O76          C86   1.278       .  A
O77         Cu82   1.971       .  S
O77          C86   1.273       .  A
O78        Cu514   1.989       .  S
O78          C85   1.276       .  A
O79        Cu514   1.989       .  S
O79          C84   1.277       .  A
O80         Cu82   1.986       .  S
O80          C83   1.277       .  A
Cu81        O290   1.979       .  S
Cu81        O291   1.977       .  S
Cu81        Cu82   2.375       .  S
Cu82        O294   2.013       .  S
Cu82        O295   2.032       .  S
C86          C89   1.454       .  S
C87          N88   1.358       .  A
C87          N92   1.373       .  A
N88          C89   1.342       .  A
C89          N90   1.347       .  A
N90          C91   1.359       .  A
C91          N92   1.389       .  A
C91          C93   1.542       .  S
C93         C273   1.556       .  S
C93          C97   1.537       .  S
C93         C166   1.540       .  S
C94         C281   1.549       .  S
C94         C163   1.542       .  S
C94         C101   1.537       .  S
N95          C97   1.322   1_565  A
N95          N99   1.359       .  S
C96          C97   1.392       .  A
C96          H98   1.081       .  S
N99         C161   1.324       .  A
N99         C166   1.325   1_565  A
C100        C107   1.405       .  A
C100        C101   1.392       .  A
C100        H102   1.082       .  S
C101        N213   1.323       .  A
C103        C208   1.534       .  S
C103        C104   1.395   1_565  A
C104        H105   1.082   1_545  S
C106        N213   1.324       .  A
C106        C207   1.538       .  S
C106        C107   1.391       .  A
C107        H108   1.083       .  S
C109        N155   1.327       .  A
C109        C110   1.395       .  A
C110        C156   1.408       .  A
C110        H111   1.081       .  S
C112        C113   1.392   1_556  A
C113        C214   1.406   1_544  A
C113        H114   1.081       .  S
C115        N116   1.376       .  A
C115        N120   1.362       .  A
C115        C147   1.504       .  S
N116        C117   1.385       .  A
C117        N118   1.361       .  A
C117        C585   1.545       .  S
N118        C119   1.346       .  A
C119        N120   1.342       .  A
C119        C144   1.465       .  S
C121        N122   1.356       .  A
C121        N126   1.383       .  A
C121        C127   1.502       .  S
N122        C123   1.338       .  A
C123        N124   1.349       .  A
C123        C145   1.464       .  S
N124        C125   1.365       .  A
C125        N126   1.388       .  A
C125        C586   1.560       .  S
C127        N128   1.360       .  A
C127        N132   1.372       .  A
N128        C129   1.345       .  A
C129        N130   1.349       .  A
C129        C143   1.462       .  S
N130        C131   1.360       .  A
C131        N132   1.386       .  A
C131        C154   1.541       .  S
O133       Cu141   2.024       .  S
O133        C143   1.279       .  A
O134       Cu573   2.027       .  S
O134        C144   1.279       .  A
O135       Cu573   2.026       .  S
O135        C145   1.278       .  A
O136       Cu141   2.020       .  S
O136        C146   1.276       .  A
O137       Cu142   1.984       .  S
O137        C146   1.277       .  A
O138       Cu574   1.987       .  S
O138        C145   1.277       .  A
O139       Cu574   1.989       .  S
O139        C144   1.276       .  A
O140       Cu142   1.982       .  S
O140        C143   1.275       .  A
Cu141       O350   1.984       .  S
Cu141       O351   1.984       .  S
Cu141      Cu142   2.373       .  S
Cu142       O354   2.039       .  S
Cu142       O355   2.028       .  S
C146        C149   1.463       .  S
C147        N148   1.354       .  A
C147        N152   1.382       .  A
N148        C149   1.336       .  A
C149        N150   1.349       .  A
N150        C151   1.366       .  A
C151        N152   1.389       .  A
C151        C153   1.558       .  S
C153        C333   1.551       .  S
C153        C157   1.543       .  S
C154        C341   1.552       .  S
C154        C161   1.540       .  S
N155        C157   1.328       .  A
N155        N159   1.359       .  S
C156        C157   1.391       .  A
C156        H158   1.081       .  S
C160        C167   1.404       .  A
C160        C161   1.392       .  A
C160        H162   1.082       .  S
C163        N209   1.325       .  A
C163        C164   1.393       .  A
C164        C210   1.407       .  A
C164        H165   1.081       .  S
C166        C167   1.392   1_545  A
C167        H168   1.081   1_565  S
C169        N170   1.379       .  A
C169        N174   1.359       .  A
C169        C201   1.503       .  S
N170        C171   1.388       .  A
C171        N172   1.355       .  A
C171        C639   1.542       .  S
N172        C173   1.340       .  A
C173        N174   1.339       .  A
C173        C198   1.450       .  S
C175        N176   1.358       .  A
C175        N180   1.383       .  A
C175        C181   1.501       .  S
N176        C177   1.336       .  A
C177        N178   1.339       .  A
C177        C199   1.448       .  S
N178        C179   1.355       .  A
C179        N180   1.389       .  A
C179        C640   1.548       .  S
C181        N182   1.358       .  A
C181        N186   1.373       .  A
N182        C183   1.342       .  A
C183        N184   1.353       .  A
C183        C197   1.471       .  S
N184        C185   1.367       .  A
C185        N186   1.386       .  A
C185        C208   1.547       .  S
O187       Cu195   2.037       .  S
O187        C197   1.280       .  A
O188       Cu627   2.006       .  S
O188        C198   1.276       .  A
O189       Cu627   2.002       .  S
O189        C199   1.275       .  A
O190       Cu195   2.033       .  S
O190        C200   1.279       .  A
O191       Cu196   1.986       .  S
O191        C200   1.277       .  A
O192       Cu628   1.978       .  S
O192        C199   1.275       .  A
O193       Cu628   1.981       .  S
O193        C198   1.275       .  A
O194       Cu196   1.980       .  S
O194        C197   1.276       .  A
Cu195       O404   1.979       .  S
Cu195       O405   1.980       .  S
Cu195      Cu196   2.372       .  S
Cu196       O408   2.023       .  S
Cu196       O409   2.015       .  S
C200        C203   1.470       .  S
C201        N202   1.355       .  A
C201        N206   1.379       .  A
N202        C203   1.337       .  A
C203        N204   1.352       .  A
N204        C205   1.368       .  A
C205        N206   1.388       .  A
C205        C207   1.556       .  S
C207        C387   1.545       .  S
C207        C211   1.542       .  S
C208        C395   1.540       .  S
C208        C215   1.537       .  S
N209        C211   1.326       .  A
N209        N213   1.359       .  S
C210        C211   1.392       .  A
C210        H212   1.081       .  S
C214        C215   1.393       .  A
C214        H216   1.081       .  S
C217        N218   1.373       .  A
C217        N222   1.356       .  A
C217        C249   1.489       .  S
N218        C219   1.380       .  A
C219        N220   1.372       .  A
N220        C221   1.357       .  A
C221        N222   1.341       .  A
C221        C246   1.479       .  S
C223        N224   1.353       .  A
C223        N228   1.371       .  A
C223        C229   1.495       .  S
N224        C225   1.343       .  A
C225        N226   1.360       .  A
C225        C247   1.471       .  S
N226        C227   1.370       .  A
C227        N228   1.385       .  A
C229        N230   1.359       .  A
C229        N234   1.378       .  A
N230        C231   1.341       .  A
C231        N232   1.336       .  A
C231        C245   1.439       .  S
N232        C233   1.349       .  A
C233        N234   1.386       .  A
C233        C256   1.536       .  S
O235       Cu243   1.975       .  S
O235        C245   1.274       .  A
O236        C246   1.278   1_554  A
O237        C247   1.277       .  A
O238       Cu243   1.965       .  S
O238        C248   1.272       .  A
O239       Cu244   1.986       .  S
O239        C248   1.274       .  A
O240        C247   1.277       .  A
O241        C246   1.280       .  A
O242       Cu244   1.992       .  S
O242        C245   1.274       .  A
Cu243       O452   2.067       .  S
Cu243       O453   2.059       .  S
Cu243      Cu244   2.373       .  S
Cu244       O456   1.990       .  S
Cu244       O457   1.998       .  S
C248        C251   1.434   1_554  S
C249        N250   1.357       .  A
C249        N254   1.374       .  A
N250        C251   1.339       .  A
C251        N252   1.336       .  A
N252        C253   1.350       .  A
C253        N254   1.384       .  A
C253        C255   1.530       .  S
C255        C435   1.573   1_556  S
C255        C259   1.542       .  S
C255        C328   1.543       .  S
C256        C443   1.579       .  S
C256        C325   1.545       .  S
C256        C263   1.545       .  S
N257        C259   1.324       .  A
N257        C319   1.323   1_545  A
N257        N261   1.357       .  S
C258        C320   1.405       .  A
C258        C259   1.391       .  A
C258        H260   1.081       .  S
N261        C431   1.327   1_545  A
N261        C328   1.328       .  A
C262        C269   1.407       .  A
C262        C263   1.391       .  A
C262        H264   1.082       .  S
C263        N375   1.329       .  A
C265        N311   1.321       .  A
C265        C370   1.532       .  S
C265        C266   1.391       .  A
C266        C312   1.402   1_565  A
C266        H267   1.082       .  S
C268        N375   1.327       .  A
C268        C369   1.546       .  S
C268        C269   1.394       .  A
C269        H270   1.082       .  S
C271        N272   1.378       .  A
C271        N276   1.356       .  A
C271        C303   1.502       .  S
N272        C273   1.386       .  A
C273        N274   1.365       .  A
N274        C275   1.351       .  A
C275        N276   1.341       .  A
C275        C300   1.466       .  S
C277        N278   1.355       .  A
C277        N282   1.372       .  A
C277        C283   1.496       .  S
N278        C279   1.342       .  A
C279        N280   1.353       .  A
C279        C301   1.459       .  S
N280        C281   1.362       .  A
C281        N282   1.386       .  A
C283        N284   1.356       .  A
C283        N288   1.375       .  A
N284        C285   1.341       .  A
C285        N286   1.343       .  A
C285        C299   1.441       .  S
N286        C287   1.353       .  A
C287        N288   1.386       .  A
C287        C310   1.534       .  S
O289       Cu297   1.971       .  S
O289        C299   1.275       .  A
O290        C300   1.276       .  A
O291        C301   1.276       .  A
O292       Cu297   1.980       .  S
O292        C302   1.274       .  A
O293       Cu298   2.013       .  S
O293        C302   1.278       .  A
O294        C301   1.276       .  A
O295        C300   1.279       .  A
O296       Cu298   1.995       .  S
O296        C299   1.274       .  A
Cu297       O506   2.041       .  S
Cu297       O507   2.043       .  S
Cu297      Cu298   2.374       .  S
Cu298       O510   1.995       .  S
Cu298       O511   1.982       .  S
C302        C305   1.453       .  S
C303        N304   1.362       .  A
C303        N308   1.379       .  A
N304        C305   1.343       .  A
C305        N306   1.339       .  A
N306        C307   1.354       .  A
C307        N308   1.386       .  A
C307        C309   1.539       .  S
C309        C489   1.558       .  S
C309        C313   1.535       .  S
C309        C382   1.540       .  S
C310        C497   1.568       .  S
C310        C379   1.537       .  S
C310        C317   1.542       .  S
N311        C313   1.320   1_565  A
N311        N315   1.360       .  S
C312        C313   1.395       .  A
C312        H314   1.082       .  S
N315        C377   1.327       .  A
N315        C382   1.326   1_565  A
C316        C323   1.406       .  A
C316        C317   1.391       .  A
C316        H318   1.082       .  S
C317        N429   1.327       .  A
C319        C424   1.544       .  S
C319        C320   1.393   1_565  A
C320        H321   1.080   1_545  S
C322        N429   1.326       .  A
C322        C423   1.543       .  S
C322        C323   1.394       .  A
C323        H324   1.082       .  S
C325        N371   1.326       .  A
C325        C326   1.392       .  A
C326        C372   1.405       .  A
C326        H327   1.080       .  S
C328        C329   1.391   1_556  A
C329        C430   1.407   1_545  A
C329        H330   1.083       .  S
C331        N332   1.372       .  A
C331        N336   1.357       .  A
C331        C363   1.501       .  S
N332        C333   1.386       .  A
C333        N334   1.365       .  A
N334        C335   1.355       .  A
C335        N336   1.344       .  A
C335        C360   1.468       .  S
C337        N338   1.359       .  A
C337        N342   1.375       .  A
C337        C343   1.506       .  S
N338        C339   1.343       .  A
C339        N340   1.351       .  A
C339        C361   1.472       .  S
N340        C341   1.366       .  A
C341        N342   1.385       .  A
C343        N344   1.358       .  A
C343        N348   1.384       .  A
N344        C345   1.338       .  A
C345        N346   1.340       .  A
C345        C359   1.450       .  S
N346        C347   1.355       .  A
C347        N348   1.390       .  A
C347        C370   1.550       .  S
O349       Cu357   1.984       .  S
O349        C359   1.276       .  A
O350        C360   1.277       .  A
O351        C361   1.276       .  A
O352       Cu357   1.974       .  S
O352        C362   1.274       .  A
O353       Cu358   2.002       .  S
O353        C362   1.275       .  A
O354        C361   1.280       .  A
O355        C360   1.278       .  A
O356       Cu358   2.004       .  S
O356        C359   1.275       .  A
Cu357       O566   2.040       .  S
Cu357       O567   2.031       .  S
Cu357      Cu358   2.375       .  S
Cu358       O570   1.982       .  S
Cu358       O571   1.983       .  S
C362        C365   1.446       .  S
C363        N364   1.356       .  A
C363        N368   1.381       .  A
N364        C365   1.339       .  A
C365        N366   1.343       .  A
N366        C367   1.356       .  A
C367        N368   1.389       .  A
C367        C369   1.549       .  S
C369        C549   1.567       .  S
C369        C373   1.544       .  S
C370        C557   1.560       .  S
C370        C377   1.540       .  S
N371        C373   1.325       .  A
N371        N375   1.357       .  S
C372        C373   1.393       .  A
C372        H374   1.082       .  S
C376        C383   1.407       .  A
C376        C377   1.392       .  A
C376        H378   1.082       .  S
C379        N425   1.324       .  A
C379        C380   1.389       .  A
C380        C426   1.403       .  A
C380        H381   1.081       .  S
C382        C383   1.392   1_545  A
C383        H384   1.082   1_565  S
C385        N386   1.370       .  A
C385        N390   1.356       .  A
C385        C417   1.498       .  S
N386        C387   1.385       .  A
C387        N388   1.361       .  A
N388        C389   1.352       .  A
C389        N390   1.344       .  A
C389        C414   1.459       .  S
C391        N392   1.358       .  A
C391        N396   1.371       .  A
C391        C397   1.490       .  S
N392        C393   1.341       .  A
C393        N394   1.347       .  A
C393        C415   1.464       .  S
N394        C395   1.364       .  A
C395        N396   1.379       .  A
C397        N398   1.353       .  A
C397        N402   1.377       .  A
N398        C399   1.336       .  A
C399        N400   1.340       .  A
C399        C413   1.439       .  S
N400        C401   1.355       .  A
C401        N402   1.386       .  A
C401        C424   1.537       .  S
O403       Cu411   1.964       .  S
O403        C413   1.273       .  A
O404        C414   1.277       .  A
O405        C415   1.275       .  A
O406       Cu411   1.978       .  S
O406        C416   1.275       .  A
O407       Cu412   2.000       .  S
O407        C416   1.275       .  A
O408        C415   1.278       .  A
O409        C414   1.276       .  A
O410       Cu412   1.994       .  S
O410        C413   1.274       .  A
Cu411       O620   2.043       .  S
Cu411       O621   2.052       .  S
Cu411      Cu412   2.374       .  S
Cu412       O624   1.989       .  S
Cu412       O625   1.987       .  S
C416        C419   1.444       .  S
C417        N418   1.357       .  A
C417        N422   1.378       .  A
N418        C419   1.341       .  A
C419        N420   1.341       .  A
N420        C421   1.352       .  A
C421        N422   1.387       .  A
C421        C423   1.539       .  S
C423        C603   1.566       .  S
C423        C427   1.542       .  S
C424        C611   1.565       .  S
C424        C431   1.545       .  S
N425        C427   1.322       .  A
N425        N429   1.358       .  S
C426        C427   1.394       .  A
C426        H428   1.081       .  S
C430        C431   1.394   1_554  A
C430        H432   1.082       .  S
C433        N434   1.368   1_554  A
C433        N438   1.356       .  A
C433        C465   1.478       .  S
N434        C435   1.372   1_556  A
C435        N436   1.381       .  A
N436        C437   1.369       .  A
C437        N438   1.348       .  A
C437        C462   1.497       .  S
C439        N440   1.351       .  A
C439        N444   1.372       .  A
C439        C445   1.482       .  S
N440        C441   1.344       .  A
C441        N442   1.370       .  A
C441        C463   1.492       .  S
N442        C443   1.381       .  A
C443        N444   1.377       .  A
C445        N446   1.360       .  A
C445        N450   1.360       .  A
N446        C447   1.353       .  A
C447        N448   1.358   1_655  A
C447        C461   1.468   1_655  S
N448        C449   1.362       .  A
C449        N450   1.376   1_455  A
C449        C472   1.547       .  S
O451       Cu459   1.995   1_655  S
O451        C461   1.277   1_655  A
O452        C462   1.285       .  A
O453        C463   1.283       .  A
O454       Cu459   1.981   1_655  S
O454        C464   1.276   1_655  A
O455       Cu460   2.019       .  S
O455        C464   1.277       .  A
O456        C463   1.279       .  A
O457        C462   1.278       .  A
O458       Cu460   2.024       .  S
O458        C461   1.278       .  A
Cu459      Cu460   2.373       .  S
C464        C467   1.463   1_454  S
C465        N466   1.354       .  A
C465        N470   1.363   1_554  A
N466        C467   1.348   1_554  A
C467        N468   1.358   1_655  A
N468        C469   1.364       .  A
C469        N470   1.376   1_455  A
C469        C471   1.547       .  S
C471        C475   1.539       .  S
C471        C544   1.533   1_556  S
C472        C541   1.539       .  S
C472        C479   1.535       .  S
N473        C475   1.328       .  A
N473        C535   1.326   1_545  A
N473        N477   1.361       .  S
C474        C536   1.409       .  A
C474        C475   1.390       .  A
C474        H476   1.080       .  S
N477        C647   1.321   1_545  A
N477        C544   1.323   1_556  A
C478        C485   1.403       .  A
C478        C479   1.390       .  A
C478        H480   1.083       .  S
C479        N591   1.321       .  A
C481        N527   1.329       .  A
C481        C586   1.542       .  S
C481        C482   1.392       .  A
C482        C528   1.410   1_565  A
C482        H483   1.081       .  S
C484        N591   1.320       .  A
C484        C585   1.534       .  S
C484        C485   1.394       .  A
C485        H486   1.082       .  S
C487        N488   1.367       .  A
C487        N492   1.357       .  A
C487        C519   1.489       .  S
N488        C489   1.379       .  A
C489        N490   1.368       .  A
N490        C491   1.362       .  A
C491        N492   1.352       .  A
C491        C516   1.474       .  S
C493        N494   1.356       .  A
C493        N498   1.376       .  A
C493        C499   1.492       .  S
N494        C495   1.347       .  A
C495        N496   1.361       .  A
C495        C517   1.480       .  S
N496        C497   1.371       .  A
C497        N498   1.381       .  A
C499        N500   1.358       .  A
C499        N504   1.369       .  A
N500        C501   1.351       .  A
C501        N502   1.352   1_655  A
C501        C515   1.458   1_655  S
N502        C503   1.357       .  A
C503        N504   1.383   1_455  A
C503        C526   1.548       .  S
O505       Cu513   1.981   1_655  S
O505        C515   1.275   1_655  A
O506        C516   1.281       .  A
O507        C517   1.280       .  A
O508       Cu513   1.978   1_655  S
O508        C518   1.276       .  A
O509       Cu514   2.011       .  S
O509        C518   1.276   1_455  A
O510        C517   1.278       .  A
O511        C516   1.276       .  A
O512       Cu514   2.018       .  S
O512        C515   1.278       .  A
Cu513      Cu514   2.374       .  S
C518        C521   1.458       .  S
C519        N520   1.353       .  A
C519        N524   1.372       .  A
N520        C521   1.347       .  A
C521        N522   1.355   1_655  A
N522        C523   1.362       .  A
C523        N524   1.383   1_455  A
C523        C525   1.555       .  S
C525        C529   1.543       .  S
C525        C598   1.535   1_545  S
C526        C595   1.534       .  S
C526        C533   1.530       .  S
N527        C529   1.329   1_565  A
N527        N531   1.362       .  S
C528        C529   1.394       .  A
C528        H530   1.081       .  S
N531        C593   1.325       .  A
N531        C598   1.326       .  A
C532        C539   1.403       .  A
C532        C533   1.390       .  A
C532        H534   1.081       .  S
C533        N645   1.321       .  A
C535        C640   1.539       .  S
C535        C536   1.390   1_565  A
C536        H537   1.078   1_545  S
C538        N645   1.320       .  A
C538        C639   1.532       .  S
C538        C539   1.394       .  A
C539        H540   1.081       .  S
C541        N587   1.327       .  A
C541        C542   1.391       .  A
C542        C588   1.407       .  A
C542        H543   1.081       .  S
C544        C545   1.391       .  A
C545        C646   1.404   1_545  A
C545        H546   1.082       .  S
C547        N548   1.374       .  A
C547        N552   1.355       .  A
C547        C579   1.490       .  S
N548        C549   1.379       .  A
C549        N550   1.369       .  A
N550        C551   1.359       .  A
C551        N552   1.347       .  A
C551        C576   1.475       .  S
C553        N554   1.355       .  A
C553        N558   1.368       .  A
C553        C559   1.489       .  S
N554        C555   1.351       .  A
C555        N556   1.361       .  A
C555        C577   1.468       .  S
N556        C557   1.365       .  A
C557        N558   1.381       .  A
C559        N560   1.355       .  A
C559        N564   1.370       .  A
N560        C561   1.349       .  A
C561        N562   1.358   1_655  A
C561        C575   1.466       .  S
N562        C563   1.364       .  A
C563        N564   1.381   1_455  A
C563        C586   1.555       .  S
O565       Cu573   1.982   1_655  S
O565        C575   1.276       .  A
O566        C576   1.281       .  A
O567        C577   1.279       .  A
O568       Cu573   1.985   1_655  S
O568        C578   1.276   1_655  A
O569       Cu574   2.030       .  S
O569        C578   1.279       .  A
O570        C577   1.276       .  A
O571        C576   1.276       .  A
O572       Cu574   2.025       .  S
O572        C575   1.278   1_455  A
Cu573      Cu574   2.373       .  S
C578        C581   1.467   1_455  S
C579        N580   1.358       .  A
C579        N584   1.368       .  A
N580        C581   1.352       .  A
C581        N582   1.357   1_655  A
N582        C583   1.362       .  A
C583        N584   1.380   1_455  A
C583        C585   1.550       .  S
C585        C589   1.541       .  S
C586        C593   1.537       .  S
N587        C589   1.325       .  A
N587        N591   1.360       .  S
C588        C589   1.393       .  A
C588        H590   1.081       .  S
C592        C599   1.406       .  A
C592        C593   1.392       .  A
C592        H594   1.082       .  S
C595        N641   1.325       .  A
C595        C596   1.391       .  A
C596        C642   1.406       .  A
C596        H597   1.081       .  S
C598        C599   1.388       .  A
C599        H600   1.079       .  S
C601        N602   1.372       .  A
C601        N606   1.355       .  A
C601        C633   1.486       .  S
N602        C603   1.377       .  A
C603        N604   1.371       .  A
N604        C605   1.362       .  A
C605        N606   1.349       .  A
C605        C630   1.478       .  S
C607        N608   1.356       .  A
C607        N612   1.368       .  A
C607        C613   1.483       .  S
N608        C609   1.349       .  A
C609        N610   1.364       .  A
C609        C631   1.486       .  S
N610        C611   1.375       .  A
C611        N612   1.374       .  A
C613        N614   1.355       .  A
C613        N618   1.367       .  A
N614        C615   1.349       .  A
C615        N616   1.360   1_655  A
C615        C629   1.469       .  S
N616        C617   1.366       .  A
C617        N618   1.379   1_455  A
C617        C640   1.558       .  S
O619       Cu627   1.982   1_655  S
O619        C629   1.276       .  A
O620        C630   1.281       .  A
O621        C631   1.282       .  A
O622       Cu627   1.982   1_655  S
O622        C632   1.276       .  A
O623       Cu628   2.030       .  S
O623        C632   1.279   1_455  A
O624        C631   1.277       .  A
O625        C630   1.277       .  A
O626       Cu628   2.030       .  S
O626        C629   1.279   1_455  A
Cu627      Cu628   2.376       .  S
C632        C635   1.466       .  S
C633        N634   1.357       .  A
C633        N638   1.369       .  A
N634        C635   1.351       .  A
C635        N636   1.358   1_655  A
N636        C637   1.363       .  A
C637        N638   1.380   1_455  A
C637        C639   1.554       .  S
C639        C643   1.534       .  S
C640        C647   1.533       .  S
N641        C643   1.323       .  A
N641        N645   1.362       .  S
C642        C643   1.393       .  A
C642        H644   1.081       .  S
C646        C647   1.393   1_554  A
C646        H648   1.081       .  S
C649        N695   1.329       .  A
C649        C796   1.548       .  S
C649        C650   1.397       .  A
C650        C696   1.406       .  A
C650        H651   1.081       .  S
C652        N801   1.323       .  A
C652        C795   1.540       .  S
C652        C653   1.393       .  A
C653        C754   1.405       .  A
C653        H654   1.080       .  S
C655        N656   1.368       .  A
C655        N660   1.356       .  A
C655        C687   1.478       .  S
N656        C657   1.373   1_455  A
C657        N658   1.364       .  A
C657       C1125   1.543       .  S
N658        C659   1.355   1_655  A
C659        N660   1.348       .  A
C659        C684   1.467   1_455  S
C661        N662   1.355       .  A
C661        N666   1.366       .  A
C661        C667   1.472       .  S
N662        C663   1.346       .  A
C663        N664   1.357   1_455  A
C663        C685   1.465   1_455  S
N664        C665   1.364       .  A
C665        N666   1.371   1_655  A
C665       C1126   1.544       .  S
C667        N668   1.360       .  A
C667        N672   1.371       .  A
N668        C669   1.344       .  A
C669        N670   1.356       .  A
C669        C683   1.485       .  S
N670        C671   1.368       .  A
C671        N672   1.373       .  A
C671        C694   1.584       .  S
O673       Cu681   2.006       .  S
O673        C683   1.278       .  A
O674      Cu1113   2.027       .  S
O674        C684   1.279       .  A
O675      Cu1113   2.017       .  S
O675        C685   1.277       .  A
O676       Cu681   2.002       .  S
O676        C686   1.276       .  A
O677       Cu682   2.059       .  S
O677        C686   1.283       .  A
O678      Cu1114   1.993   1_455  S
O678        C685   1.278   1_455  A
O679      Cu1114   1.986   1_455  S
O679        C684   1.276   1_455  A
O680       Cu682   2.053       .  S
O680        C683   1.282       .  A
Cu681       O890   1.974       .  S
Cu681       O891   1.981       .  S
Cu681      Cu682   2.370       .  S
Cu682       O894   2.031       .  S
Cu682       O895   2.016       .  S
C686        C689   1.486       .  S
C687        N688   1.361       .  A
C687        N692   1.374       .  A
N688        C689   1.345       .  A
C689        N690   1.357       .  A
N690        C691   1.369       .  A
C691        N692   1.375       .  A
C691        C693   1.588       .  S
C693        C873   1.562       .  S
C693        C697   1.538       .  S
C693        C808   1.558       .  S
C694        C881   1.554       .  S
C694        C805   1.532       .  S
C694        C701   1.560       .  S
N695        C697   1.329       .  A
N695        N699   1.357       .  S
C696        C697   1.380       .  A
C696        H698   1.080       .  S
N699        C803   1.328       .  A
N699        C808   1.327       .  A
C700        C707   1.408       .  A
C700        C701   1.399       .  A
C700        H702   1.081       .  S
C701        N855   1.327       .  A
C703        N749   1.325       .  A
C703        C850   1.543   1_545  S
C703        C704   1.391       .  A
C704        C750   1.403       .  A
C704        H705   1.080       .  S
C706        N855   1.329       .  A
C706        C849   1.542       .  S
C706        C707   1.387       .  A
C707        H708   1.082       .  S
C709        N710   1.360       .  A
C709        N714   1.351       .  A
C709        C741   1.460       .  S
N710        C711   1.366   1_455  A
C711        N712   1.370       .  A
C711       C1179   1.542       .  S
N712        C713   1.359   1_655  A
C713        N714   1.343       .  A
C713        C738   1.466   1_455  S
C715        N716   1.354       .  A
C715        N720   1.364       .  A
C715        C721   1.466       .  S
N716        C717   1.346       .  A
C717        N718   1.355   1_455  A
C717        C739   1.468   1_455  S
N718        C719   1.367       .  A
C719        N720   1.368   1_655  A
C719       C1180   1.535       .  S
C721        N722   1.357       .  A
C721        N726   1.362       .  A
N722        C723   1.348       .  A
C723        N724   1.359       .  A
C723        C737   1.476       .  S
N724        C725   1.371       .  A
C725        N726   1.365       .  A
C725        C748   1.542       .  S
O727       Cu735   1.991       .  S
O727        C737   1.277       .  A
O728      Cu1167   2.023       .  S
O728        C738   1.277       .  A
O729      Cu1167   2.031       .  S
O729        C739   1.279       .  A
O730       Cu735   1.981       .  S
O730        C740   1.277       .  A
O731       Cu736   2.026       .  S
O731        C740   1.278       .  A
O732      Cu1168   1.981   1_455  S
O732        C739   1.276   1_455  A
O733      Cu1168   1.981   1_455  S
O733        C738   1.277   1_455  A
O734       Cu736   2.043       .  S
O734        C737   1.281       .  A
Cu735       O944   2.027       .  S
Cu735       O945   2.018       .  S
Cu735      Cu736   2.372       .  S
Cu736       O948   1.978       .  S
Cu736       O949   1.987       .  S
C740        C743   1.466       .  S
C741        N742   1.354       .  A
C741        N746   1.353       .  A
N742        C743   1.349       .  A
C743        N744   1.362       .  A
N744        C745   1.367       .  A
C745        N746   1.366       .  A
C745        C747   1.532       .  S
C747        C927   1.539       .  S
C747        C751   1.544       .  S
C747        C862   1.542       .  S
C748        C935   1.520       .  S
C748        C859   1.538       .  S
C748        C755   1.538   1_556  S
N749        C751   1.324       .  A
N749        N753   1.356       .  S
C750        C751   1.393       .  A
C750        H752   1.080       .  S
N753        C857   1.321       .  A
N753        C862   1.321       .  A
C754        C755   1.391       .  A
C754        H756   1.081       .  S
C755        N801   1.324       .  A
C757        N758   1.364       .  A
C757        N762   1.355       .  A
C757        C789   1.466       .  S
N758        C759   1.368   1_455  A
C759        N760   1.370       .  A
C759       C1227   1.543       .  S
N760        C761   1.358   1_655  A
C761        N762   1.345       .  A
C761        C786   1.471   1_455  S
C763        N764   1.357       .  A
C763        N768   1.364       .  A
C763        C769   1.461       .  S
N764        C765   1.345       .  A
C765        N766   1.354   1_455  A
C765        C787   1.468   1_455  S
N766        C767   1.366       .  A
C767        N768   1.366   1_655  A
C767       C1228   1.531   1_565  S
C769        N770   1.356       .  A
C769        N774   1.366       .  A
N770        C771   1.344       .  A
C771        N772   1.357       .  A
C771        C785   1.478       .  S
N772        C773   1.372       .  A
C773        N774   1.366       .  A
C773        C796   1.542   1_565  S
O775       Cu783   1.993       .  S
O775        C785   1.278       .  A
O776      Cu1215   2.034       .  S
O776        C786   1.279       .  A
O777      Cu1215   2.028       .  S
O777        C787   1.279       .  A
O778       Cu783   1.990       .  S
O778        C788   1.277       .  A
O779       Cu784   2.034       .  S
O779        C788   1.279       .  A
O780      Cu1216   1.987   1_455  S
O780        C787   1.276   1_455  A
O781      Cu1216   1.989   1_455  S
O781        C786   1.277   1_455  A
O782       Cu784   2.038       .  S
O782        C785   1.280       .  A
Cu783       O992   2.028       .  S
Cu783       O993   2.024       .  S
Cu783      Cu784   2.371       .  S
Cu784       O996   1.982       .  S
Cu784       O997   1.984       .  S
C788        C791   1.473       .  S
C789        N790   1.356       .  A
C789        N794   1.361       .  A
N790        C791   1.347       .  A
C791        N792   1.358       .  A
N792        C793   1.368       .  A
C793        N794   1.366       .  A
C793        C795   1.536       .  S
C795        C975   1.532       .  S
C795        C799   1.541   1_554  S
C796        C983   1.532   1_545  S
C796        C803   1.539       .  S
N797        C799   1.324       .  A
N797        C859   1.325       .  A
N797        N801   1.359   1_556  S
C798        C860   1.405       .  A
C798        C799   1.393       .  A
C798        H800   1.082       .  S
C802        C809   1.407       .  A
C802        C803   1.385       .  A
C802        H804   1.081       .  S
C805        N851   1.328       .  A
C805        C806   1.383       .  A
C806        C852   1.404       .  A
C806        H807   1.082       .  S
C808        C809   1.399       .  A
C809        H810   1.080       .  S
C811        N812   1.366       .  A
C811        N816   1.361       .  A
C811        C843   1.464       .  S
N812        C813   1.367   1_455  A
C813        N814   1.364       .  A
C813       C1281   1.529       .  S
N814        C815   1.350   1_655  A
C815        N816   1.346       .  A
C815        C840   1.468   1_455  S
C817        N818   1.347       .  A
C817        N822   1.368       .  A
C817        C823   1.463       .  S
N818        C819   1.339       .  A
C819        N820   1.357   1_455  A
C819        C841   1.462   1_455  S
N820        C821   1.369       .  A
C821        N822   1.371   1_655  A
C821       C1282   1.544       .  S
C823        N824   1.359       .  A
C823        N828   1.351       .  A
N824        C825   1.351       .  A
C825        N826   1.354       .  A
C825        C839   1.463       .  S
N826        C827   1.362       .  A
C827        N828   1.365       .  A
C827        C850   1.519       .  S
O829       Cu837   1.978       .  S
O829        C839   1.275       .  A
O830      Cu1269   2.027       .  S
O830        C840   1.279       .  A
O831      Cu1269   2.017       .  S
O831        C841   1.276       .  A
O832       Cu837   1.981       .  S
O832        C842   1.277       .  A
O833       Cu838   2.020       .  S
O833        C842   1.277       .  A
O834      Cu1270   1.977   1_455  S
O834        C841   1.278   1_455  A
O835      Cu1270   1.995   1_455  S
O835        C840   1.277   1_455  A
O836       Cu838   2.026       .  S
O836        C839   1.279       .  A
Cu837      O1046   2.038       .  S
Cu837      O1047   2.043       .  S
Cu837      Cu838   2.371       .  S
Cu838      O1050   1.993       .  S
Cu838      O1051   2.001       .  S
C842        C845   1.461       .  S
C843        N844   1.355       .  A
C843        N848   1.371       .  A
N844        C845   1.340       .  A
C845        N846   1.347       .  A
N846        C847   1.365       .  A
C847        N848   1.370       .  A
C847        C849   1.531       .  S
C849       C1029   1.542       .  S
C849        C853   1.550       .  S
C850       C1037   1.541       .  S
C850        C857   1.539   1_565  S
N851        C853   1.324       .  A
N851        N855   1.357       .  S
C852        C853   1.400       .  A
C852        H854   1.082       .  S
C856        C863   1.408       .  A
C856        C857   1.387       .  A
C856        H858   1.080   1_545  S
C859        C860   1.388       .  A
C860        H861   1.081       .  S
C862        C863   1.387       .  A
C863        H864   1.079       .  S
C865        N911   1.325       .  A
C865       C1012   1.536   1_545  S
C865        C866   1.386       .  A
C866        C912   1.405       .  A
C866        H867   1.081       .  S
C868       N1017   1.328       .  A
C868       C1011   1.543       .  S
C868        C869   1.392       .  A
C869        C970   1.405       .  A
C869        H870   1.081       .  S
C871        N872   1.377       .  A
C871        N876   1.356       .  A
C871        C903   1.469       .  S
N872        C873   1.378       .  A
C873        N874   1.353       .  A
N874        C875   1.344       .  A
C875        N876   1.341       .  A
C875        C900   1.450       .  S
C877        N878   1.366       .  A
C877        N882   1.373       .  A
C877        C883   1.470       .  S
N878        C879   1.348       .  A
C879        N880   1.340       .  A
C879        C901   1.458       .  S
N880        C881   1.349       .  A
C881        N882   1.374       .  A
C883        N884   1.355       .  A
C883        N888   1.378       .  A
N884        C885   1.341       .  A
C885        N886   1.348       .  A
C885        C899   1.460       .  S
N886        C887   1.359       .  A
C887        N888   1.376       .  A
C887        C910   1.563       .  S
O889       Cu897   2.030       .  S
O889        C899   1.278       .  A
O890        C900   1.274       .  A
O891        C901   1.273       .  A
O892       Cu897   2.034       .  S
O892        C902   1.281       .  A
O893       Cu898   1.972       .  S
O893        C902   1.272       .  A
O894        C901   1.280       .  A
O895        C900   1.276       .  A
O896       Cu898   1.980       .  S
O896        C899   1.275       .  A
Cu897      O1106   2.038       .  S
Cu897      O1107   2.037       .  S
Cu897      Cu898   2.372       .  S
Cu898      O1110   1.970       .  S
Cu898      O1111   1.987       .  S
C902        C905   1.458       .  S
C903        N904   1.362       .  A
C903        N908   1.371       .  A
N904        C905   1.347       .  A
C905        N906   1.346       .  A
N906        C907   1.355       .  A
C907        N908   1.374       .  A
C907        C909   1.550       .  S
C909       C1089   1.572       .  S
C909        C913   1.556       .  S
C909       C1024   1.536       .  S
C910       C1097   1.562       .  S
C910       C1021   1.545       .  S
C910        C917   1.540       .  S
N911        C913   1.323       .  A
N911        N915   1.357       .  S
C912        C913   1.399       .  A
C912        H914   1.080       .  S
N915       C1019   1.324       .  A
N915       C1024   1.326       .  A
C916        C923   1.407       .  A
C916        C917   1.395       .  A
C916        H918   1.081       .  S
C917       N1071   1.326       .  A
C919        N965   1.325       .  A
C919       C1066   1.540   1_545  S
C919        C920   1.391       .  A
C920        C966   1.406       .  A
C920        H921   1.084       .  S
C922       N1071   1.327       .  A
C922       C1065   1.543       .  S
C922        C923   1.390       .  A
C923        H924   1.081       .  S
C925        N926   1.362       .  A
C925        N930   1.352       .  A
C925        C957   1.469       .  S
N926        C927   1.368       .  A
C927        N928   1.367       .  A
N928        C929   1.357       .  A
C929        N930   1.345       .  A
C929        C954   1.466       .  S
C931        N932   1.357       .  A
C931        N936   1.354       .  A
C931        C937   1.459       .  S
N932        C933   1.350       .  A
C933        N934   1.353       .  A
C933        C955   1.460       .  S
N934        C935   1.361       .  A
C935        N936   1.366       .  A
C937        N938   1.350       .  A
C937        N942   1.364       .  A
N938        C939   1.342       .  A
C939        N940   1.362       .  A
C939        C953   1.470       .  S
N940        C941   1.373       .  A
C941        N942   1.367       .  A
C941        C964   1.548       .  S
O943       Cu951   1.982       .  S
O943        C953   1.278       .  A
O944        C954   1.277       .  A
O945        C955   1.278       .  A
O946       Cu951   1.989       .  S
O946        C956   1.277       .  A
O947       Cu952   2.043       .  S
O947        C956   1.281       .  A
O948        C955   1.275       .  A
O949        C954   1.278       .  A
O950       Cu952   2.029       .  S
O950        C953   1.278       .  A
Cu951      O1160   2.008       .  S
Cu951      O1161   2.011       .  S
Cu951      Cu952   2.374       .  S
Cu952      O1164   1.975       .  S
Cu952      O1165   1.963       .  S
C956        C959   1.479       .  S
C957        N958   1.356       .  A
C957        N962   1.365       .  A
N958        C959   1.346       .  A
C959        N960   1.359       .  A
N960        C961   1.372       .  A
C961        N962   1.369       .  A
C961        C963   1.545       .  S
C963       C1143   1.526       .  S
C963        C967   1.541       .  S
C963       C1078   1.539       .  S
C964       C1151   1.529       .  S
C964       C1075   1.537       .  S
C964        C971   1.546   1_556  S
N965        C967   1.325       .  A
N965        N969   1.359       .  S
C966        C967   1.393       .  A
C966        H968   1.082       .  S
N969       C1073   1.324       .  A
N969       C1078   1.325       .  A
C970        C971   1.393       .  A
C970        H972   1.079       .  S
C971       N1017   1.326       .  A
C973        N974   1.361       .  A
C973        N978   1.356       .  A
C973       C1005   1.467       .  S
N974        C975   1.370       .  A
C975        N976   1.363       .  A
N976        C977   1.355       .  A
C977        N978   1.348       .  A
C977       C1002   1.463       .  S
C979        N980   1.355       .  A
C979        N984   1.362       .  A
C979        C985   1.457       .  S
N980        C981   1.345       .  A
C981        N982   1.355       .  A
C981       C1003   1.463       .  S
N982        C983   1.366       .  A
C983        N984   1.366       .  A
C985        N986   1.354       .  A
C985        N990   1.362       .  A
N986        C987   1.345       .  A
C987        N988   1.352       .  A
C987       C1001   1.454       .  S
N988        C989   1.363       .  A
C989        N990   1.367       .  A
C989       C1012   1.528       .  S
O991       Cu999   1.972       .  S
O991       C1001   1.275       .  A
O992       C1002   1.278       .  A
O993       C1003   1.278       .  A
O994       Cu999   1.985       .  S
O994       C1004   1.277       .  A
O995      Cu1000   2.019       .  S
O995       C1004   1.277       .  A
O996       C1003   1.276       .  A
O997       C1002   1.276       .  A
O998      Cu1000   2.017       .  S
O998       C1001   1.277       .  A
Cu999      O1208   2.018       .  S
Cu999      O1209   2.036       .  S
Cu999     Cu1000   2.374       .  S
Cu1000     O1212   1.979       .  S
Cu1000     O1213   1.974       .  S
C1004      C1007   1.464       .  S
C1005      N1006   1.353       .  A
C1005      N1010   1.366       .  A
N1006      C1007   1.344       .  A
C1007      N1008   1.355       .  A
N1008      C1009   1.366       .  A
C1009      N1010   1.370       .  A
C1009      C1011   1.538       .  S
C1011      C1191   1.538       .  S
C1011      C1015   1.542       .  S
C1012      C1199   1.533       .  S
C1012      C1019   1.547   1_565  S
N1013      C1015   1.323       .  A
N1013      C1075   1.325   1_554  A
N1013      N1017   1.359       .  S
C1014      C1076   1.406       .  A
C1014      C1015   1.393   1_556  A
C1014      H1016   1.081       .  S
C1018      C1025   1.406       .  A
C1018      C1019   1.399       .  A
C1018      H1020   1.082   1_545  S
C1021      N1067   1.326       .  A
C1021      C1022   1.389       .  A
C1022      C1068   1.406       .  A
C1022      H1023   1.081       .  S
C1024      C1025   1.387       .  A
C1025      H1026   1.082       .  S
C1027      N1028   1.359       .  A
C1027      N1032   1.357       .  A
C1027      C1059   1.456       .  S
N1028      C1029   1.364       .  A
C1029      N1030   1.371       .  A
N1030      C1031   1.360       .  A
C1031      N1032   1.347       .  A
C1031      C1056   1.477       .  S
C1033      N1034   1.355       .  A
C1033      N1038   1.358       .  A
C1033      C1039   1.463       .  S
N1034      C1035   1.346       .  A
C1035      N1036   1.361       .  A
C1035      C1057   1.480       .  S
N1036      C1037   1.373       .  A
C1037      N1038   1.364       .  A
C1039      N1040   1.353       .  A
C1039      N1044   1.362       .  A
N1040      C1041   1.343       .  A
C1041      N1042   1.363       .  A
C1041      C1055   1.476       .  S
N1042      C1043   1.374       .  A
C1043      N1044   1.367       .  A
C1043      C1066   1.549       .  S
O1045     Cu1053   1.993       .  S
O1045      C1055   1.279       .  A
O1046      C1056   1.280       .  A
O1047      C1057   1.280       .  A
O1048     Cu1053   1.982       .  S
O1048      C1058   1.276       .  A
O1049     Cu1054   2.042       .  S
O1049      C1058   1.281       .  A
O1050      C1057   1.278       .  A
O1051      C1056   1.278       .  A
O1052     Cu1054   2.032       .  S
O1052      C1055   1.279       .  A
Cu1053     O1262   2.012       .  S
Cu1053     O1263   1.998       .  S
Cu1053    Cu1054   2.374       .  S
Cu1054     O1266   1.969       .  S
Cu1054     O1267   1.961       .  S
C1058      C1061   1.476       .  S
C1059      N1060   1.354       .  A
C1059      N1064   1.364       .  A
N1060      C1061   1.342       .  A
C1061      N1062   1.358       .  A
N1062      C1063   1.374       .  A
C1063      N1064   1.366       .  A
C1063      C1065   1.542       .  S
C1065      C1245   1.523       .  S
C1065      C1069   1.539       .  S
C1066      C1253   1.531       .  S
C1066      C1073   1.546   1_565  S
N1067      C1069   1.324       .  A
N1067      N1071   1.359       .  S
C1068      C1069   1.396       .  A
C1068      H1070   1.082       .  S
C1072      C1079   1.405       .  A
C1072      C1073   1.395       .  A
C1072      H1074   1.079   1_545  S
C1075      C1076   1.390       .  A
C1076      H1077   1.083       .  S
C1078      C1079   1.389       .  A
C1079      H1080   1.079       .  S
C1081      N1127   1.324       .  A
C1081      C1228   1.537       .  S
C1081      C1082   1.390       .  A
C1082      C1128   1.406       .  A
C1082      H1083   1.081   1_655  S
C1084      N1233   1.324       .  A
C1084      C1227   1.536       .  S
C1084      C1085   1.391       .  A
C1085      C1186   1.405       .  A
C1085      H1086   1.082       .  S
C1087      N1088   1.371       .  A
C1087      N1092   1.357       .  A
C1087      C1119   1.480       .  S
N1088      C1089   1.374       .  A
C1089      N1090   1.362       .  A
N1090      C1091   1.354       .  A
C1091      N1092   1.348       .  A
C1091      C1116   1.467       .  S
C1093      N1094   1.357       .  A
C1093      N1098   1.365       .  A
C1093      C1099   1.472       .  S
N1094      C1095   1.349       .  A
C1095      N1096   1.354       .  A
C1095      C1117   1.462       .  S
N1096      C1097   1.361       .  A
C1097      N1098   1.374       .  A
C1099      N1100   1.352       .  A
C1099      N1104   1.361       .  A
N1100      C1101   1.351       .  A
C1101      N1102   1.357       .  A
C1101      C1115   1.452       .  S
N1102      C1103   1.359       .  A
C1103      N1104   1.373       .  A
C1103      C1126   1.538       .  S
O1105     Cu1113   1.970       .  S
O1105      C1115   1.276       .  A
O1106      C1116   1.280       .  A
O1107      C1117   1.281       .  A
O1108     Cu1113   1.966       .  S
O1108      C1118   1.274       .  A
O1109     Cu1114   2.021       .  S
O1109      C1118   1.278       .  A
O1110      C1117   1.272       .  A
O1111      C1116   1.276       .  A
O1112     Cu1114   2.010       .  S
O1112      C1115   1.275       .  A
Cu1113    Cu1114   2.375       .  S
C1118      C1121   1.455       .  S
C1119      N1120   1.355       .  A
C1119      N1124   1.362       .  A
N1120      C1121   1.353       .  A
C1121      N1122   1.354       .  A
N1122      C1123   1.358       .  A
C1123      N1124   1.376       .  A
C1123      C1125   1.536       .  S
C1125      C1129   1.543       .  S
C1125      C1240   1.532       .  S
C1126      C1237   1.546       .  S
C1126      C1133   1.535       .  S
N1127      C1129   1.324       .  A
N1127      N1131   1.360       .  S
C1128      C1129   1.395       .  A
C1128      H1130   1.081   1_655  S
N1131      C1235   1.320       .  A
N1131      C1240   1.321       .  A
C1132      C1139   1.404       .  A
C1132      C1133   1.389       .  A
C1132      H1134   1.081       .  S
C1133      N1287   1.321       .  A
C1135      N1181   1.325       .  A
C1135      C1282   1.535   1_545  S
C1135      C1136   1.389       .  A
C1136      C1182   1.403       .  A
C1136      H1137   1.079   1_655  S
C1138      N1287   1.321       .  A
C1138      C1281   1.535       .  S
C1138      C1139   1.395       .  A
C1139      H1140   1.081       .  S
C1141      N1142   1.361       .  A
C1141      N1146   1.352       .  A
C1141      C1173   1.462       .  S
N1142      C1143   1.370       .  A
C1143      N1144   1.359       .  A
N1144      C1145   1.351       .  A
C1145      N1146   1.345       .  A
C1145      C1170   1.450       .  S
C1147      N1148   1.352       .  A
C1147      N1152   1.360       .  A
C1147      C1153   1.467       .  S
N1148      C1149   1.346       .  A
C1149      N1150   1.354       .  A
C1149      C1171   1.454       .  S
N1150      C1151   1.361       .  A
C1151      N1152   1.371       .  A
C1153      N1154   1.353       .  A
C1153      N1158   1.360       .  A
N1154      C1155   1.347       .  A
C1155      N1156   1.355       .  A
C1155      C1169   1.456       .  S
N1156      C1157   1.363       .  A
C1157      N1158   1.371       .  A
C1157      C1180   1.532       .  S
O1159     Cu1167   1.971       .  S
O1159      C1169   1.275       .  A
O1160      C1170   1.276       .  A
O1161      C1171   1.276       .  A
O1162     Cu1167   1.976       .  S
O1162      C1172   1.276       .  A
O1163     Cu1168   2.013       .  S
O1163      C1172   1.276       .  A
O1164      C1171   1.276       .  A
O1165      C1170   1.273       .  A
O1166     Cu1168   2.018       .  S
O1166      C1169   1.277       .  A
Cu1167    Cu1168   2.374       .  S
C1172      C1175   1.456       .  S
C1173      N1174   1.354       .  A
C1173      N1178   1.361       .  A
N1174      C1175   1.346       .  A
C1175      N1176   1.354       .  A
N1176      C1177   1.362       .  A
C1177      N1178   1.370       .  A
C1177      C1179   1.528       .  S
C1179      C1183   1.541       .  S
C1179      C1294   1.541       .  S
C1180      C1291   1.540       .  S
C1180      C1187   1.540   1_556  S
N1181      C1183   1.323       .  A
N1181      N1185   1.360       .  S
C1182      C1183   1.393       .  A
C1182      H1184   1.079   1_655  S
N1185      C1289   1.326       .  A
N1185      C1294   1.327       .  A
C1186      C1187   1.394       .  A
C1186      H1188   1.082       .  S
C1187      N1233   1.323       .  A
C1189      N1190   1.358       .  A
C1189      N1194   1.352       .  A
C1189      C1221   1.462       .  S
N1190      C1191   1.368       .  A
C1191      N1192   1.366       .  A
N1192      C1193   1.360       .  A
C1193      N1194   1.347       .  A
C1193      C1218   1.462       .  S
C1195      N1196   1.353       .  A
C1195      N1200   1.366       .  A
C1195      C1201   1.464       .  S
N1196      C1197   1.344       .  A
C1197      N1198   1.354       .  A
C1197      C1219   1.470       .  S
N1198      C1199   1.369       .  A
C1199      N1200   1.367       .  A
C1201      N1202   1.356       .  A
C1201      N1206   1.356       .  A
N1202      C1203   1.349       .  A
C1203      N1204   1.353       .  A
C1203      C1217   1.457       .  S
N1204      C1205   1.360       .  A
C1205      N1206   1.368       .  A
C1205      C1228   1.524   1_565  S
O1207     Cu1215   1.977       .  S
O1207      C1217   1.276       .  A
O1208      C1218   1.277       .  A
O1209      C1219   1.279       .  A
O1210     Cu1215   1.968       .  S
O1210      C1220   1.275       .  A
O1211     Cu1216   2.010       .  S
O1211      C1220   1.276       .  A
O1212      C1219   1.276       .  A
O1213      C1218   1.276       .  A
O1214     Cu1216   2.017       .  S
O1214      C1217   1.277       .  A
Cu1215    Cu1216   2.374       .  S
C1220      C1223   1.452       .  S
C1221      N1222   1.353       .  A
C1221      N1226   1.358       .  A
N1222      C1223   1.347       .  A
C1223      N1224   1.353       .  A
N1224      C1225   1.360       .  A
C1225      N1226   1.369       .  A
C1225      C1227   1.524       .  S
C1227      C1231   1.541   1_554  S
C1228      C1235   1.534       .  S
N1229      C1231   1.324       .  A
N1229      C1291   1.324       .  A
N1229      N1233   1.360   1_556  S
C1230      C1292   1.406       .  A
C1230      C1231   1.393       .  A
C1230      H1232   1.081   1_655  S
C1234      C1241   1.402       .  A
C1234      C1235   1.394       .  A
C1234      H1236   1.082   1_545  S
C1237      N1283   1.323       .  A
C1237      C1238   1.398       .  A
C1238      C1284   1.406       .  A
C1238      H1239   1.080   1_655  S
C1240      C1241   1.390       .  A
C1241      H1242   1.082       .  S
C1243      N1244   1.362       .  A
C1243      N1248   1.351       .  A
C1243      C1275   1.459       .  S
N1244      C1245   1.368       .  A
C1245      N1246   1.362       .  A
N1246      C1247   1.350       .  A
C1247      N1248   1.345       .  A
C1247      C1272   1.453       .  S
C1249      N1250   1.352       .  A
C1249      N1254   1.364       .  A
C1249      C1255   1.466       .  S
N1250      C1251   1.343       .  A
C1251      N1252   1.350       .  A
C1251      C1273   1.444       .  S
N1252      C1253   1.357       .  A
C1253      N1254   1.373       .  A
C1255      N1256   1.355       .  A
C1255      N1260   1.361       .  A
N1256      C1257   1.348       .  A
C1257      N1258   1.355       .  A
C1257      C1271   1.460       .  S
N1258      C1259   1.363       .  A
C1259      N1260   1.370       .  A
C1259      C1282   1.529       .  S
O1261     Cu1269   1.974       .  S
O1261      C1271   1.275       .  A
O1262      C1272   1.277       .  A
O1263      C1273   1.274       .  A
O1264     Cu1269   1.969       .  S
O1264      C1274   1.275       .  A
O1265     Cu1270   2.020       .  S
O1265      C1274   1.277       .  A
O1266      C1273   1.275       .  A
O1267      C1272   1.273       .  A
O1268     Cu1270   2.025       .  S
O1268      C1271   1.278       .  A
Cu1269    Cu1270   2.374       .  S
C1274      C1277   1.458       .  S
C1275      N1276   1.355       .  A
C1275      N1280   1.355       .  A
N1276      C1277   1.349       .  A
C1277      N1278   1.356       .  A
N1278      C1279   1.363       .  A
C1279      N1280   1.364       .  A
C1279      C1281   1.522       .  S
C1281      C1285   1.533       .  S
C1282      C1289   1.542   1_565  S
N1283      C1285   1.324       .  A
N1283      N1287   1.360       .  S
C1284      C1285   1.387       .  A
C1284      H1286   1.081   1_655  S
C1288      C1295   1.407       .  A
C1288      C1289   1.393       .  A
C1288      H1290   1.075   1_545  S
C1291      C1292   1.393       .  A
C1292      H1293   1.078   1_655  S
C1294      C1295   1.393       .  A
C1295      H1296   1.082       .  S
