geometry optimzed in LAMMPS
_audit_creation_date              2020-11-30 
_audit_creation_method            'lammps2cif' 
_symmetry_space_group_name_H-M    'P1' 
_symmetry_Int_Tables_number       1 
_symmetry_cell_setting            triclinic 
loop_ 
_symmetry_equiv_pos_as_xyz 
  x,y,z 
_cell_length_a                    31.9702664 
_cell_length_b                    32.06808735167691 
_cell_length_c                    48.3497970544374 
_cell_angle_alpha                 89.6550515986308 
_cell_angle_beta                  90.01125779700989 
_cell_angle_gamma                 119.68413820711653 
loop_ 
_atom_site_label 
_atom_site_type_symbol 
_atom_site_fract_x 
_atom_site_fract_y 
_atom_site_fract_z 
_atom_site_charge 
C1          C  0.33304564  0.16766272  0.34799404     0.46300
H2          H  0.33319151  0.16811627  0.32501356    -0.02700
C3          C  0.33230449  0.16591134  0.40181689     0.46400
H4          H  0.33181321  0.16504686  0.42480529    -0.02700
C5          C  0.35820762  0.14155491  0.36046130    -0.16400
C6          C  0.35857832  0.21808480  0.36101881    -0.16200
C7          C  0.28203821  0.14227102  0.36051365    -0.16500
C8          C  0.35860615  0.14146473  0.38895844    -0.16500
C9          C  0.35737650  0.21710483  0.38956841    -0.16100
C10         C  0.28169575  0.14050440  0.38892041    -0.16400
C11         C  0.16730600  0.33182362  0.15247308     0.46300
H12         H  0.16902023  0.33079765  0.17525354    -0.02700
C13         C  0.16720147  0.33482978  0.09879548     0.46400
H14         H  0.16737944  0.33632553  0.07590421    -0.02700
C15         C  0.21773236  0.35644517  0.13969048    -0.16400
C16         C  0.14012072  0.28215525  0.13895604    -0.16200
C17         C  0.14302311  0.35924530  0.14113055    -0.16500
C18         C  0.21809507  0.35772251  0.11133766    -0.16500
C19         C  0.14024308  0.28333691  0.11051101    -0.16100
C20         C  0.14318047  0.36114766  0.11253428    -0.16400
Zn21       Zn  0.03380008  0.46678084  0.48719275     1.49700
Zn22       Zn  0.43382703  0.46499320  0.48709711     1.49400
Zn23       Zn  0.50091300  0.50154691  0.04122194     1.49100
Zn24       Zn  0.03136745  0.06564384  0.48651339     1.49500
O25         O  0.50003879  0.49969056  0.50060399    -1.83300
O26         O  0.49044772  0.40703683  0.46500574    -0.73900
O27         O  0.38773225  0.44177147  0.01884029    -0.73700
O28         O  0.03034052  0.46313833  0.05663314    -0.73200
O29         O  0.42117266  0.40720775  0.46452273    -0.73900
O30         O  0.05817446  0.44485900  0.01914484    -0.73500
O31         O  0.43298731  0.47226592  0.05629492    -0.74100
O32         O  0.05514002  0.11417691  0.01720111    -0.73500
O33         O  0.41755964  0.00734532  0.46381343    -0.74300
O34         O  0.03993649  0.07009179  0.05537903    -0.73600
O35         O  0.48593871  0.07687928  0.46306770    -0.74100
O36         O  0.08935586  0.08019969  0.46356143    -0.74000
O37         O  0.09090449  0.01173046  0.46369029    -0.73800
C38         C  0.44650417  0.38823708  0.45777903     0.78000
C39         C  0.39193346  0.44839641  0.04483276     0.78500
C40         C  0.05280984  0.44419243  0.04525515     0.77400
C41         C  0.05779325  0.11086235  0.04330823     0.77800
C42         C  0.44203249  0.05097842  0.45610106     0.78900
C43         C  0.10878568  0.05559041  0.45640933     0.78000
Zn44       Zn  0.06703719  0.03412917  0.23774557     1.49700
Zn45       Zn  0.99851367  0.50066021  0.29092746     1.49400
Zn46       Zn  0.46687159  0.03338025  0.23536499     1.49100
Zn47       Zn  0.46852343  0.43475953  0.23691916     1.49500
O48         O  0.00009456  0.50077678  0.25035232    -1.83300
O49         O  0.11275246  0.05464624  0.26989813    -0.73900
O50         O  0.46383630  0.03459807  0.30446204    -0.73700
O51         O  0.01065459  0.08818080  0.21014269    -0.73200
O52         O  0.06574987  0.03509576  0.30715456    -0.73900
O53         O  0.08149977  0.09229223  0.21519081    -0.73500
O54         O  0.44629071  0.06183948  0.26625088    -0.74100
O55         O  0.41245318  0.42041093  0.21244717    -0.73500
O56         O  0.46398476  0.43271157  0.30606262    -0.74300
O57         O  0.40769992  0.48703494  0.21358541    -0.73600
O58         O  0.44141544  0.38748529  0.26833253    -0.74100
O59         O  0.01473815  0.42186301  0.21532607    -0.74000
O60         O  0.08196377  0.49252943  0.21360083    -0.73800
C61         C  0.10727688  0.05348630  0.29601590     0.78000
C62         C  0.44654694  0.05819401  0.29250306     0.78500
C63         C  0.05563344  0.10845095  0.20502511     0.77400
C64         C  0.39146893  0.44381001  0.20571146     0.77800
C65         C  0.44261069  0.39175397  0.29449711     0.78900
C66         C  0.05796832  0.44844518  0.20715229     0.78000
C67         C  0.12832133  0.20175388  0.09924631    -0.11400
C68         C  0.11973207  0.23964007  0.09255755     0.05600
C69         C  0.09287333  0.23565569  0.06849823    -0.06700
C70         C  0.07480807  0.19424482  0.05219696    -0.07500
C71         C  0.08132800  0.15552592  0.05982176    -0.02000
C72         C  0.10886538  0.15976655  0.08349704     0.04800
N73         N  0.11897505  0.12255039  0.09125496     0.67300
H74         H  0.15111334  0.20497082  0.11658347     0.16200
H75         H  0.05333439  0.19133038  0.03419791     0.15900
N76         N  0.08059109  0.27159118  0.06132887     0.75000
O77         O  0.14656808  0.11436026  0.07643182    -0.38400
O78         O  0.10578972  0.10249286  0.11464014    -0.38400
O79         O  0.09002239  0.29007238  0.03742312    -0.39100
O80         O  0.05262230  0.27808349  0.07682035    -0.39100
C81         C  0.30958965  0.38155512  0.05429420    -0.11400
C82         C  0.34778024  0.42655676  0.06186829     0.05600
C83         C  0.34303671  0.44922140  0.08553869    -0.06700
C84         C  0.30053816  0.42671456  0.10107611    -0.07500
C85         C  0.26283999  0.38080125  0.09416132    -0.02000
C86         C  0.26776430  0.35823529  0.07041082     0.04800
N87         N  0.23219850  0.31039575  0.06334673     0.67300
H88         H  0.31304341  0.36338219  0.03635638     0.16200
H89         H  0.29684866  0.44590388  0.11828824     0.15900
N90         N  0.38012273  0.99590296  0.09344082     0.75000
O91         O  0.21214941  0.30215901  0.03997578    -0.38400
O92         O  0.22838026  0.27582274  0.07782943    -0.38400
O93         O  0.38124553  0.03261496  0.08301988    -0.39100
O94         O  0.40674626  0.00042359  0.11378620    -0.39100
C95         C  0.07384471  0.37455003  0.10216654    -0.11400
C96         C  0.12053874  0.38372971  0.09565672     0.05600
C97         C  0.14410747  0.41233448  0.07223779    -0.06700
C98         C  0.12050335  0.43005570  0.05563745    -0.07500
C99         C  0.07448648  0.42189071  0.06256816    -0.02000
C100        C  0.05107937  0.39404365  0.08618456     0.04800
N101        N  0.50343626  0.38345136  0.09349811     0.67300
H102        H  0.05451531  0.35137726  0.11948685     0.16200
H103        H  0.13928258  0.45241660  0.03791581     0.15900
N104        N  0.19320431  0.42669279  0.06613813     0.75000
O105        O  0.46843909  0.35720060  0.07804922    -0.38400
O106        O  0.49559579  0.39558628  0.11686550    -0.38400
O107        O  0.20486363  0.42061641  0.04218047    -0.39100
O108        O  0.22565386  0.45339762  0.08285753    -0.39100
C109        C  0.14655869  0.22855063  0.17329701    -0.11400
C110        C  0.11707859  0.23783453  0.15593443     0.05600
C111        C  0.06772808  0.20345494  0.15362196    -0.06700
C112        C  0.04871896  0.16138479  0.16959158    -0.07500
C113        C  0.07812262  0.15203389  0.18722033    -0.02000
C114        C  0.12802919  0.18547020  0.18815250     0.04800
N115        N  0.16071219  0.17585736  0.20337938     0.67300
H116        H  0.18481316  0.25401034  0.17428027     0.16200
H117        H  0.01059895  0.13577600  0.16811800     0.15900
N118        N  0.03662705  0.21011767  0.13493842     0.75000
O119        O  0.17475537  0.14880295  0.19306836    -0.38400
O120        O  0.18255794  0.20135661  0.22397283    -0.38400
O121        O  0.03351948  0.24780207  0.13575246    -0.39100
O122        O  0.00982136  0.17684762  0.11869388    -0.39100
C123        C  0.29184091  0.35809623  0.15716851    -0.11400
C124        C  0.26143601  0.37786923  0.15717258     0.05600
C125        C  0.27320301  0.41839815  0.17351446    -0.06700
C126        C  0.31565197  0.43925616  0.18899351    -0.07500
C127        C  0.34679367  0.42011883  0.18887314    -0.02000
C128        C  0.33404790  0.37849081  0.17298959     0.04800
N129        N  0.36367563  0.35671339  0.17238606     0.67300
H130        H  0.28274441  0.32668988  0.14477437     0.16200
H131        H  0.32431511  0.47084109  0.20109395     0.15900
N132        N  0.24369320  0.44033559  0.17347686     0.75000
O133        O  0.35387170  0.32140666  0.18805853    -0.38400
O134        O  0.39428761  0.36745335  0.15328642    -0.38400
O135        O  0.22383930  0.44219371  0.19563100    -0.39100
O136        O  0.24506620  0.46556084  0.15299876    -0.39100
C137        C  0.07226378  0.38104026  0.19747887    -0.11400
C138        C  0.08107803  0.42707126  0.19049594     0.05600
C139        C  0.11301459  0.45215706  0.16861820    -0.06700
C140        C  0.13413133  0.43010849  0.15363610    -0.07500
C141        C  0.12359828  0.38288675  0.15969533    -0.02000
C142        C  0.09372724  0.35907280  0.18282520     0.04800
N143        N  0.08436370  0.31279594  0.19210795     0.67300
H144        H  0.04906717  0.36212938  0.21489754     0.16200
H145        H  0.15792696  0.44966855  0.13659189     0.15900
N146        N  0.12224551  0.49887594  0.16036019     0.75000
O147        O  0.04230723  0.27777984  0.18953623    -0.38400
O148        O  0.11052105  0.31081303  0.21104664    -0.38400
O149        O  0.16437473  0.03418309  0.16170577    -0.39100
O150        O  0.08988058  0.00352791  0.14813165    -0.39100
C151        C  0.35155775  0.08242359  0.42491983    -0.11400
C152        C  0.38089618  0.11933626  0.40641773     0.05600
C153        C  0.43036747  0.13413535  0.40500903    -0.06700
C154        C  0.44911675  0.11076886  0.42098024    -0.07500
C155        C  0.41954570  0.07260352  0.43867618    -0.02000
C156        C  0.37011955  0.05816225  0.44043589     0.04800
N157        N  0.33836098  0.01957294  0.45819303     0.67300
H158        H  0.31447431  0.07210079  0.42702506     0.16200
H159        H  0.48718860  0.12322944  0.41986845     0.15900
N160        N  0.46331348  0.17621714  0.39010698     0.75000
O161        O  0.32632518  0.52846924  0.48133489    -0.38400
O162        O  0.31677234  0.97724990  0.44906260    -0.38400
O163        O  0.48227206  0.21560393  0.40281061    -0.39100
O164        O  0.48506723  0.17200082  0.36947527    -0.39100
C165        C  0.38756406  0.33698661  0.42222135    -0.11400
C166        C  0.42404628  0.34390468  0.44084494     0.05600
C167        C  0.43712743  0.30791121  0.44323476    -0.06700
C168        C  0.41390591  0.26635764  0.42699348    -0.07500
C169        C  0.37854275  0.26033937  0.40768623    -0.02000
C170        C  0.36479509  0.29585639  0.40581848     0.04800
N171        N  0.32536208  0.28931444  0.38900130     0.67300
H172        H  0.37623673  0.36364347  0.42047315     0.16200
H173        H  0.42418960  0.23901428  0.42911722     0.15900
N174        N  0.97300827  0.31244085  0.46247883     0.75000
O175        O  0.28332637  0.26401269  0.39845308    -0.38400
O176        O  0.33251936  0.31947309  0.37010401    -0.38400
O177        O  0.96106535  0.29696364  0.48690308    -0.39100
O178        O  0.01512400  0.32554997  0.45408137    -0.39100
C179        C  0.22769636  0.14714871  0.42328279    -0.11400
C180        C  0.23734783  0.11776271  0.40622053     0.05600
C181        C  0.20477090  0.06785868  0.40614897    -0.06700
C182        C  0.16329080  0.04868397  0.42256583    -0.07500
C183        C  0.15302406  0.07811323  0.43920456    -0.02000
C184        C  0.18564290  0.12805898  0.43932841     0.04800
N185        N  0.17722690  0.15982365  0.45600871     0.67300
H186        H  0.25283545  0.18518788  0.42406100     0.16200
H187        H  0.13907608  0.01025709  0.42237136     0.15900
N188        N  0.21452185  0.03531055  0.39131297     0.75000
O189        O  0.18921030  0.16540238  0.48115894    -0.38400
O190        O  0.16357425  0.18670496  0.44483666    -0.38400
O191        O  0.18683226  0.01172333  0.37178818    -0.39100
O192        O  0.23731336  0.01800598  0.40362562    -0.39100
C193        C  0.41274211  0.14710910  0.32202272    -0.11400
C194        C  0.37952153  0.11906355  0.34261946     0.05600
C195        C  0.36772351  0.07058061  0.34587962    -0.06700
C196        C  0.39145444  0.05227440  0.32998614    -0.07500
C197        C  0.42485541  0.08038679  0.30967165    -0.02000
C198        C  0.43541669  0.12815958  0.30558144     0.04800
N199        N  0.47121885  0.15860103  0.28602002     0.67300
H200        H  0.42215401  0.18431109  0.31923053     0.16200
H201        H  0.38175702  0.01492221  0.33244077     0.15900
N202        N  0.32807373  0.03804925  0.36273497     0.75000
O203        O  0.45883238  0.16947489  0.26354299    -0.38400
O204        O  0.51511711  0.17917209  0.29263052    -0.38400
O205        O  0.28661991  0.03049195  0.35657364    -0.39100
O206        O  0.33206019  0.00811753  0.37798638    -0.39100
C207        C  0.35546932  0.26678066  0.32145267    -0.11400
C208        C  0.38158644  0.26257365  0.34358506     0.05600
C209        C  0.42866082  0.30078947  0.34864230    -0.06700
C210        C  0.44645353  0.34367306  0.33352957    -0.07500
C211        C  0.41996840  0.34798962  0.31179949    -0.02000
C212        C  0.37431737  0.30889797  0.30550988     0.04800
N213        N  0.34595078  0.31217069  0.28366621     0.67300
H214        H  0.31993192  0.23748982  0.31669556     0.16600
H215        H  0.48273362  0.37253844  0.33736295     0.15900
N216        N  0.46110914  0.29421371  0.36601312     0.75000
O217        O  0.34086730  0.28980897  0.26141384    -0.38400
O218        O  0.32084796  0.33188431  0.28801135    -0.38400
O219        O  0.46912678  0.26041202  0.36061090    -0.39100
O220        O  0.49019444  0.32797897  0.38128458    -0.39100
C221        C  0.22857828  0.08338460  0.32539658    -0.11400
C222        C  0.23785193  0.12143073  0.34313137     0.05600
C223        C  0.20379828  0.13723562  0.34505304    -0.06700
C224        C  0.16018918  0.11305488  0.33062738    -0.07500
C225        C  0.15051192  0.07423101  0.31357302    -0.02000
C226        C  0.18473806  0.05893367  0.31117123     0.04800
N227        N  0.17402572  0.01689442  0.29565726     0.67300
H228        H  0.25451242  0.07117464  0.32360003     0.16200
H229        H  0.13487854  0.12624837  0.33154661     0.15900
N230        N  0.21516541  0.18072940  0.35898959     0.75000
O231        O  0.20364320  0.51803547  0.27801436    -0.38400
O232        O  0.13623951  0.97769620  0.30084653    -0.38400
O233        O  0.24923265  0.21964137  0.34977347    -0.39100
O234        O  0.18461911  0.18192576  0.37501374    -0.39100
C235        C  0.33302828  0.16765626  0.84801148     0.46300
H236        H  0.33318784  0.16809238  0.82503112    -0.02700
C237        C  0.33225077  0.16593278  0.90183411     0.46400
H238        H  0.33174394  0.16508058  0.92482250    -0.02700
C239        C  0.35818812  0.14156071  0.86049970    -0.16400
C240        C  0.35854684  0.21808938  0.86102557    -0.16200
C241        C  0.28201307  0.14226458  0.86052028    -0.16500
C242        C  0.35856864  0.14148609  0.88899706    -0.16500
C243        C  0.35732428  0.21711960  0.88957577    -0.16100
C244        C  0.28165161  0.14051484  0.88892698    -0.16400
C245        C  0.16729919  0.33178022  0.65247949     0.46300
H246        H  0.16902309  0.33074790  0.67525807    -0.02700
C247        C  0.16718601  0.33479286  0.59880296     0.46400
H248        H  0.16736049  0.33629191  0.57591199    -0.02700
C249        C  0.21772530  0.35640528  0.63969455    -0.16400
C250        C  0.14010991  0.28211444  0.63896160    -0.16200
C251        C  0.14301151  0.35920198  0.64114181    -0.16500
C252        C  0.21808217  0.35769129  0.61134160    -0.16500
C253        C  0.14023346  0.28329873  0.61051753    -0.16100
C254        C  0.14316253  0.36110485  0.61254464    -0.16400
Zn255      Zn  0.03381524  0.46679029  0.98718458     1.49700
Zn256      Zn  0.43385691  0.46501305  0.98709910     1.49400
Zn257      Zn  0.50091279  0.50156654  0.54122287     1.49100
Zn258      Zn  0.03131238  0.06563249  0.98651451     1.49500
O259        O  0.50006579  0.49968842  0.00060436    -1.83300
O260        O  0.49043641  0.40703312  0.96499812    -0.73900
O261        O  0.38772422  0.44177152  0.51884981    -0.73700
O262        O  0.03033109  0.46310526  0.55664328    -0.73200
O263        O  0.42117950  0.40724002  0.96451612    -0.73900
O264        O  0.05816311  0.44483576  0.51915016    -0.73500
O265        O  0.43298686  0.47227632  0.55630198    -0.74100
O266        O  0.05517577  0.11415821  0.51721038    -0.73500
O267        O  0.41751587  0.00737741  0.96386672    -0.74300
O268        O  0.03993714  0.07005425  0.55538366    -0.73600
O269        O  0.48590936  0.07689646  0.96311629    -0.74100
O270        O  0.08928797  0.08018128  0.96355334    -0.74000
O271        O  0.09087173  0.01172887  0.96370004    -0.73800
C272        C  0.44649401  0.38825243  0.95777259     0.78000
C273        C  0.39193053  0.44840286  0.54484240     0.78500
C274        C  0.05279554  0.44415738  0.54526120     0.77400
C275        C  0.05780624  0.11082957  0.54331791     0.77800
C276        C  0.44199455  0.05101445  0.95616124     0.78900
C277        C  0.10873305  0.05558215  0.95640883     0.78000
Zn278      Zn  0.06701296  0.03408796  0.73775254     1.49700
Zn279      Zn  0.99855469  0.50069053  0.79091692     1.49400
Zn280      Zn  0.46682430  0.03337798  0.73540372     1.49100
Zn281      Zn  0.46855015  0.43478846  0.73689062     1.49500
O282        O  0.00015147  0.50079200  0.75034225    -1.83300
O283        O  0.11273002  0.05460229  0.76990343    -0.73900
O284        O  0.46381731  0.03457068  0.80450660    -0.73700
O285        O  0.01063606  0.08813736  0.71013971    -0.73200
O286        O  0.06573284  0.03509187  0.80716045    -0.73900
O287        O  0.08147851  0.09224567  0.71519386    -0.73500
O288        O  0.44624594  0.06181401  0.76630619    -0.74100
O289        O  0.41250336  0.42044877  0.71240097    -0.73500
O290        O  0.46396110  0.43268259  0.80602762    -0.74300
O291        O  0.40771288  0.48705314  0.71356585    -0.73600
O292        O  0.44141746  0.38747772  0.76828999    -0.74100
O293        O  0.01477737  0.42186764  0.71533441    -0.74000
O294        O  0.08201351  0.49252937  0.71360833    -0.73800
C295        C  0.10725780  0.05346032  0.79602088     0.78000
C296        C  0.44651900  0.05816686  0.79255794     0.78500
C297        C  0.05561441  0.10840122  0.70502096     0.77400
C298        C  0.39150750  0.44384092  0.70567461     0.77800
C299        C  0.44259634  0.39172931  0.79445558     0.78900
C300        C  0.05800810  0.44844452  0.70716164     0.78000
C301        C  0.12831298  0.20171295  0.59926011    -0.11400
C302        C  0.11973380  0.23960362  0.59256446     0.05600
C303        C  0.09289029  0.23562313  0.56849956    -0.06700
C304        C  0.07482875  0.19421249  0.55219966    -0.07500
C305        C  0.08132618  0.15548488  0.55983597    -0.02000
C306        C  0.10883985  0.15971762  0.58351969     0.04800
N307        N  0.11889696  0.12247766  0.59130025     0.67300
H308        H  0.15109774  0.20492416  0.61659935     0.16200
H309        H  0.05337052  0.19130343  0.53419412     0.15900
N310        N  0.08060888  0.27155724  0.56132721     0.75000
O311        O  0.14674750  0.11447058  0.57659987    -0.38400
O312        O  0.10541300  0.10223777  0.61462053    -0.38400
O313        O  0.09004289  0.29003771  0.53742115    -0.39100
O314        O  0.05264777  0.27805799  0.57682087    -0.39100
C315        C  0.30957520  0.38157769  0.55428891    -0.11400
C316        C  0.34777710  0.42656050  0.56187926     0.05600
C317        C  0.34303681  0.44920319  0.58556204    -0.06700
C318        C  0.30052707  0.42669455  0.60108981    -0.07500
C319        C  0.26282425  0.38079092  0.59416259    -0.02000
C320        C  0.26774644  0.35824818  0.57040039     0.04800
N321        N  0.23217461  0.31042067  0.56331858     0.67300
H322        H  0.31302418  0.36341880  0.53633912     0.16200
H323        H  0.29683563  0.44587385  0.61831644     0.15900
N324        N  0.38014887  0.99592575  0.59340320     0.75000
O325        O  0.21215642  0.30221141  0.53993910    -0.38400
O326        O  0.22832121  0.27582896  0.57779676    -0.38400
O327        O  0.38122627  0.03264436  0.58302569    -0.39100
O328        O  0.40683452  0.00042877  0.61371271    -0.39100
C329        C  0.07381952  0.37449798  0.60217175    -0.11400
C330        C  0.12051735  0.38368478  0.59566591     0.05600
C331        C  0.14408773  0.41229303  0.57224826    -0.06700
C332        C  0.12048376  0.43001222  0.55564586    -0.07500
C333        C  0.07446253  0.42183985  0.56257142    -0.02000
C334        C  0.05104857  0.39398286  0.58618503     0.04800
N335        N  0.50349274  0.38352342  0.59352320     0.67300
H336        H  0.05449101  0.35132257  0.61949150     0.16200
H337        H  0.13926761  0.45237953  0.53792714     0.15900
N338        N  0.19318775  0.42665961  0.56615287     0.75000
O339        O  0.46850641  0.35743115  0.57802694    -0.38400
O340        O  0.49563923  0.39551586  0.61693050    -0.38400
O341        O  0.20485377  0.42057968  0.54219779    -0.39100
O342        O  0.22563184  0.45337281  0.58287267    -0.39100
C343        C  0.14656874  0.22845361  0.67325370    -0.11400
C344        C  0.11707331  0.23779170  0.65593689     0.05600
C345        C  0.06770985  0.20344770  0.65365198    -0.06700
C346        C  0.04869069  0.16138092  0.66962250    -0.07500
C347        C  0.07810642  0.15197752  0.68720987    -0.02000
C348        C  0.12803334  0.18535473  0.68809194     0.04800
N349        N  0.16073170  0.17564366  0.70322892     0.67300
H350        H  0.18483681  0.25387351  0.67420227     0.16200
H351        H  0.01055724  0.13580956  0.66817287     0.15900
N352        N  0.03661169  0.21012434  0.63497704     0.75000
O353        O  0.17463651  0.14852627  0.69284913    -0.38400
O354        O  0.18270640  0.20109503  0.72381215    -0.38400
O355        O  0.03321764  0.24763899  0.63595294    -0.39100
O356        O  0.00999532  0.17695712  0.61862592    -0.39100
C357        C  0.29193519  0.35816758  0.65709427    -0.11400
C358        C  0.26143599  0.37783309  0.65717393     0.05600
C359        C  0.27314259  0.41829329  0.67356665    -0.06700
C360        C  0.31560623  0.43917616  0.68903192    -0.07500
C361        C  0.34683687  0.42014617  0.68883573    -0.02000
C362        C  0.33417445  0.37860543  0.67288735     0.04800
N363        N  0.36394379  0.35699022  0.67216978     0.67300
H364        H  0.28290249  0.32683000  0.64464963     0.16200
H365        H  0.32421516  0.47070097  0.70117797     0.15900
N366        N  0.24357330  0.44016332  0.67357882     0.75000
O367        O  0.35420700  0.32154536  0.68770773    -0.38400
O368        O  0.39464361  0.36804230  0.65308920    -0.38400
O369        O  0.22370568  0.44192579  0.69574988    -0.39100
O370        O  0.24492547  0.46544706  0.65313656    -0.39100
C371        C  0.07233208  0.38105549  0.69751706    -0.11400
C372        C  0.08110569  0.42706148  0.69050752     0.05600
C373        C  0.11299276  0.45211759  0.66860656    -0.06700
C374        C  0.13410586  0.43006204  0.65362924    -0.07500
C375        C  0.12360268  0.38285531  0.65970953    -0.02000
C376        C  0.09378431  0.35907660  0.68286501     0.04800
N377        N  0.08447353  0.31283410  0.69218326     0.67300
H378        H  0.04917719  0.36217478  0.71495596     0.16200
H379        H  0.15787198  0.44960359  0.63657070     0.15900
N380        N  0.12216688  0.49880530  0.66031836     0.75000
O381        O  0.04241041  0.27780260  0.68967521    -0.38400
O382        O  0.11069533  0.31092810  0.71110785    -0.38400
O383        O  0.16435359  0.03420169  0.66189992    -0.39100
O384        O  0.09002023  0.00353153  0.64802099    -0.39100
C385        C  0.35152244  0.08246734  0.92497715    -0.11400
C386        C  0.38085913  0.11937820  0.90647474     0.05600
C387        C  0.43033943  0.13420530  0.90508845    -0.06700
C388        C  0.44908560  0.11084379  0.92106540    -0.07500
C389        C  0.41951213  0.07266478  0.93875164    -0.02000
C390        C  0.37008380  0.05822082  0.94050691     0.04800
N391        N  0.33833069  0.01965210  0.95827691     0.67300
H392        H  0.31441183  0.07212849  0.92707571     0.16200
H393        H  0.48717030  0.12331924  0.91996121     0.15900
N394        N  0.46329148  0.17630563  0.89020314     0.75000
O395        O  0.32618548  0.52850504  0.98129615    -0.38400
O396        O  0.31666656  0.97732972  0.94914792    -0.38400
O397        O  0.48232448  0.21566036  0.90294171    -0.39100
O398        O  0.48498896  0.17210333  0.86953883    -0.39100
C399        C  0.38753915  0.33701246  0.92221923    -0.11400
C400        C  0.42401470  0.34391727  0.94084479     0.05600
C401        C  0.43707785  0.30791246  0.94323991    -0.06700
C402        C  0.41385027  0.26636216  0.92699855    -0.07500
C403        C  0.37849279  0.26035451  0.90769027    -0.02000
C404        C  0.36475910  0.29588078  0.90581884     0.04800
N405        N  0.32533073  0.28934815  0.88900081     0.67300
H406        H  0.37622752  0.36368069  0.92046702     0.16200
H407        H  0.42411859  0.23900841  0.92912619     0.15900
N408        N  0.97307849  0.31245451  0.96243707     0.75000
O409        O  0.28329708  0.26412585  0.89847289    -0.38400
O410        O  0.33251420  0.31946501  0.87007290    -0.38400
O411        O  0.96113371  0.29667983  0.98680994    -0.39100
O412        O  0.01525089  0.32583757  0.95403483    -0.39100
C413        C  0.22761778  0.14716043  0.92326549    -0.11400
C414        C  0.23729133  0.11777442  0.90621687     0.05600
C415        C  0.20472736  0.06786754  0.90615085    -0.06700
C416        C  0.16324664  0.04868655  0.92256713    -0.07500
C417        C  0.15296875  0.07811155  0.93920213    -0.02000
C418        C  0.18556959  0.12806238  0.93931665     0.04800
N419        N  0.17714767  0.15982110  0.95599955     0.67300
H420        H  0.25274509  0.18520705  0.92403459     0.16200
H421        H  0.13904147  0.01025631  0.92237711     0.15900
N422        N  0.21449365  0.03532518  0.89132027     0.75000
O423        O  0.18893367  0.16523580  0.98118086    -0.38400
O424        O  0.16364494  0.18681697  0.94482058    -0.38400
O425        O  0.18680514  0.01171973  0.87179918    -0.39100
O426        O  0.23730816  0.01804731  0.90363429    -0.39100
C427        C  0.41274235  0.14710190  0.82207736    -0.11400
C428        C  0.37951666  0.11906446  0.84267349     0.05600
C429        C  0.36771469  0.07058174  0.84594051    -0.06700
C430        C  0.39144425  0.05226578  0.83005243    -0.07500
C431        C  0.42484788  0.08037015  0.80973634    -0.02000
C432        C  0.43541810  0.12814520  0.80564317     0.04800
N433        N  0.47122597  0.15858002  0.78608235     0.67300
H434        H  0.42215908  0.18430480  0.81928123     0.16200
H435        H  0.38173753  0.01491140  0.83250903     0.15900
N436        N  0.32804888  0.03805565  0.86278721     0.75000
O437        O  0.45885496  0.16958381  0.76364292    -0.38400
O438        O  0.51513435  0.17900548  0.79265996    -0.38400
O439        O  0.28659463  0.03045495  0.85658658    -0.39100
O440        O  0.33203550  0.00815456  0.87806667    -0.39100
C441        C  0.35548963  0.26672254  0.82140357    -0.11400
C442        C  0.38156413  0.26257198  0.84358016     0.05600
C443        C  0.42860745  0.30083260  0.84866215    -0.06700
C444        C  0.44639171  0.34369884  0.83353218    -0.07500
C445        C  0.41995236  0.34795560  0.81175508    -0.02000
C446        C  0.37434800  0.30881462  0.80543522     0.04800
N447        N  0.34604042  0.31200230  0.78352712     0.67300
H448        H  0.31997703  0.23740342  0.81662763     0.16600
H449        H  0.48264102  0.37260290  0.83739272     0.15900
N450        N  0.46104151  0.29433255  0.86608988     0.75000
O451        O  0.34112294  0.28965402  0.76128917    -0.38400
O452        O  0.32081804  0.33160974  0.78779753    -0.38400
O453        O  0.46902606  0.26047526  0.86079275    -0.39100
O454        O  0.49012429  0.32816662  0.88132398    -0.39100
C455        C  0.22857059  0.08337939  0.82539681    -0.11400
C456        C  0.23783564  0.12142261  0.84313125     0.05600
C457        C  0.20377746  0.13722127  0.84505231    -0.06700
C458        C  0.16016369  0.11302637  0.83063267    -0.07500
C459        C  0.15049452  0.07420653  0.81357664    -0.02000
C460        C  0.18473232  0.05892326  0.81116949     0.04800
N461        N  0.17403876  0.01689810  0.79564510     0.67300
H462        H  0.25451129  0.07117680  0.82360183     0.16200
H463        H  0.13484593  0.12621120  0.83155280     0.15900
N464        N  0.21515016  0.18072537  0.85897991     0.75000
O465        O  0.20358337  0.51792552  0.77807245    -0.38400
O466        O  0.13622664  0.97770395  0.80080041    -0.38400
O467        O  0.24932901  0.21961290  0.84981769    -0.39100
O468        O  0.18456673  0.18197620  0.87494804    -0.39100
C469        C  0.33302170  0.66766027  0.34799125     0.46300
H470        H  0.33317624  0.66811057  0.32501075    -0.02700
C471        C  0.33226238  0.66591432  0.40181439     0.46400
H472        H  0.33176476  0.66505333  0.42480275    -0.02700
C473        C  0.35817149  0.64154519  0.36046702    -0.16400
C474        C  0.35855644  0.71808518  0.36101285    -0.16200
C475        C  0.28201013  0.64227902  0.36050604    -0.16500
C476        C  0.35855847  0.64145502  0.38896422    -0.16500
C477        C  0.35734695  0.71710650  0.38956258    -0.16100
C478        C  0.28165725  0.64051622  0.38891316    -0.16400
C479        C  0.16729678  0.83178861  0.15248622     0.46300
H480        H  0.16900970  0.83075827  0.17526639    -0.02700
C481        C  0.16719345  0.83480039  0.09880873     0.46400
H482        H  0.16737650  0.83630097  0.07591729    -0.02700
C483        C  0.21772481  0.85639616  0.13970477    -0.16400
C484        C  0.14009632  0.78212289  0.13896799    -0.16200
C485        C  0.14302734  0.85922413  0.14114360    -0.16500
C486        C  0.21808438  0.85768035  0.11135229    -0.16500
C487        C  0.14022234  0.78330678  0.11052292    -0.16100
C488        C  0.14318334  0.86112743  0.11254743    -0.16400
Zn489      Zn  0.03382216  0.96678295  0.48718111     1.49700
Zn490      Zn  0.43385058  0.96500075  0.48707674     1.49400
Zn491      Zn  0.50089449  0.00154232  0.04123258     1.49100
Zn492      Zn  0.03133468  0.56563867  0.48652283     1.49500
O493        O  0.50005491  0.99969392  0.50058940    -1.83300
O494        O  0.49046340  0.90704032  0.46498790    -0.73900
O495        O  0.38770984  0.94176805  0.01885645    -0.73700
O496        O  0.03035915  0.96313922  0.05664689    -0.73200
O497        O  0.42119650  0.90722551  0.46449860    -0.73900
O498        O  0.05817428  0.94484689  0.01915491    -0.73500
O499        O  0.43297103  0.97225458  0.05631018    -0.74100
O500        O  0.05513848  0.61417944  0.01719963    -0.73500
O501        O  0.41750492  0.50732827  0.46383540    -0.74300
O502        O  0.03990704  0.57007300  0.05537075    -0.73600
O503        O  0.48588118  0.57686264  0.46308593    -0.74100
O504        O  0.08931307  0.58019371  0.46355886    -0.74000
O505        O  0.09087599  0.51173060  0.46369210    -0.73800
C506        C  0.44652333  0.88825015  0.45775622     0.78000
C507        C  0.39191574  0.94838698  0.04484957     0.78500
C508        C  0.05281917  0.94418475  0.04526616     0.77400
C509        C  0.05776971  0.61084928  0.04330741     0.77800
C510        C  0.44197296  0.55096267  0.45612302     0.78900
C511        C  0.10874715  0.55558799  0.45640657     0.78000
Zn512      Zn  0.06699098  0.53410816  0.23775504     1.49700
Zn513      Zn  0.99854386  0.00067180  0.29091069     1.49400
Zn514      Zn  0.46684843  0.53336884  0.23538609     1.49100
Zn515      Zn  0.46856076  0.93478493  0.23690637     1.49500
O516        O  0.00013481  0.00079506  0.25033627    -1.83300
O517        O  0.11271115  0.55463536  0.26990267    -0.73900
O518        O  0.46383561  0.53459437  0.30448586    -0.73700
O519        O  0.01059682  0.58816503  0.21016703    -0.73200
O520        O  0.06571995  0.53508906  0.30716394    -0.73900
O521        O  0.08143735  0.59226227  0.21520272    -0.73500
O522        O  0.44627914  0.56183204  0.26627737    -0.74100
O523        O  0.41250489  0.92042432  0.21241764    -0.73500
O524        O  0.46399034  0.93271286  0.30604784    -0.74300
O525        O  0.40773137  0.98703770  0.21356084    -0.73600
O526        O  0.44143787  0.88749585  0.26831451    -0.74100
O527        O  0.01476276  0.92187778  0.21531693    -0.74000
O528        O  0.08199848  0.99253860  0.21359620    -0.73800
C529        C  0.10724284  0.55348049  0.29602067     0.78000
C530        C  0.44654203  0.55818877  0.29252952     0.78500
C531        C  0.05557300  0.60842726  0.20504291     0.77400
C532        C  0.39151427  0.94381725  0.20568226     0.77800
C533        C  0.44262186  0.89175668  0.29447947     0.78900
C534        C  0.05799561  0.94845461  0.20714758     0.78000
C535        C  0.12826590  0.70170895  0.09926345    -0.11400
C536        C  0.11970642  0.73961206  0.09256812     0.05600
C537        C  0.09286938  0.73564423  0.06850154    -0.06700
C538        C  0.07480287  0.69423694  0.05219738    -0.07500
C539        C  0.08128815  0.65550071  0.05983053    -0.02000
C540        C  0.10878888  0.65971880  0.08351819     0.04800
N541        N  0.11882862  0.62246736  0.09129851     0.67300
H542        H  0.15103755  0.70490586  0.11660725     0.16200
H543        H  0.05335295  0.69133885  0.03418978     0.15900
N544        N  0.08060587  0.77159131  0.06132842     0.75000
O545        O  0.14670811  0.61447908  0.07661325    -0.38400
O546        O  0.10529081  0.60219076  0.11460595    -0.38400
O547        O  0.09004535  0.79006941  0.03742188    -0.39100
O548        O  0.05264091  0.77809494  0.07681671    -0.39100
C549        C  0.30958395  0.88153182  0.05431423    -0.11400
C550        C  0.34776544  0.92653893  0.06188701     0.05600
C551        C  0.34301247  0.94920273  0.08555590    -0.06700
C552        C  0.30051144  0.92668916  0.10109005    -0.07500
C553        C  0.26282639  0.88076960  0.09417718    -0.02000
C554        C  0.26776018  0.85820309  0.07043014     0.04800
N555        N  0.23220524  0.81035641  0.06337064     0.67300
H556        H  0.31304609  0.86335807  0.03637537     0.16200
H557        H  0.29680780  0.94587811  0.11830820     0.15900
N558        N  0.38015267  0.49592046  0.09342221     0.75000
O559        O  0.21217822  0.80209847  0.03999253    -0.38400
O560        O  0.22836135  0.77579549  0.07787589    -0.38400
O561        O  0.38133871  0.53263462  0.08295864    -0.39100
O562        O  0.40672763  0.50044748  0.11379408    -0.39100
C563        C  0.07384443  0.87452441  0.10217467    -0.11400
C564        C  0.12054305  0.88371296  0.09566997     0.05600
C565        C  0.14411764  0.91232784  0.07225580    -0.06700
C566        C  0.12051591  0.93005167  0.05565440    -0.07500
C567        C  0.07449066  0.92187273  0.06257746    -0.02000
C568        C  0.05107258  0.89400818  0.08618804     0.04800
N569        N  0.50344667  0.88346828  0.09351595     0.67300
H570        H  0.05451277  0.85134238  0.11949148     0.16200
H571        H  0.13930215  0.95242387  0.03793772     0.15900
N572        N  0.19321859  0.92669435  0.06616350     0.75000
O573        O  0.46845232  0.85729713  0.07804477    -0.38400
O574        O  0.49560431  0.89554075  0.11690186    -0.38400
O575        O  0.20488801  0.92060850  0.04221070    -0.39100
O576        O  0.22566018  0.95340924  0.08288408    -0.39100
C577        C  0.14651950  0.72850194  0.17330138    -0.11400
C578        C  0.11704309  0.73780361  0.15594664     0.05600
C579        C  0.06768619  0.70344114  0.15364159    -0.06700
C580        C  0.04866447  0.66137629  0.16961652    -0.07500
C581        C  0.07806538  0.65200806  0.18723720    -0.02000
C582        C  0.12797923  0.68542065  0.18815599     0.04800
N583        N  0.16065958  0.67577625  0.20336223     0.67300
H584        H  0.18477920  0.75394484  0.17427593     0.16200
H585        H  0.01053951  0.63578227  0.16814962     0.15900
N586        N  0.03659367  0.71010987  0.13495513     0.75000
O587        O  0.17467164  0.64870966  0.19303279    -0.38400
O588        O  0.18252551  0.70125080  0.22395951    -0.38400
O589        O  0.03343056  0.74776166  0.13579931    -0.39100
O590        O  0.00983044  0.67686159  0.11868725    -0.39100
C591        C  0.29191623  0.85812810  0.15711665    -0.11400
C592        C  0.26143613  0.87781644  0.15718422     0.05600
C593        C  0.27316106  0.91829118  0.17356658    -0.06700
C594        C  0.31562744  0.93917233  0.18902897    -0.07500
C595        C  0.34683722  0.92011734  0.18884772    -0.02000
C596        C  0.33415054  0.87855408  0.17291526     0.04800
N597        N  0.36388199  0.85689519  0.17222597     0.67300
H598        H  0.28286604  0.82677466  0.14468306     0.16200
H599        H  0.32425052  0.97071109  0.20116484     0.15900
N600        N  0.24359837  0.94016779  0.17357827     0.75000
O601        O  0.35418039  0.82154338  0.18783699    -0.38400
O602        O  0.39448370  0.86778581  0.15310482    -0.38400
O603        O  0.22365872  0.94185003  0.19573843    -0.39100
O604        O  0.24502784  0.96553424  0.15316121    -0.39100
C605        C  0.07229562  0.88105071  0.19749287    -0.11400
C606        C  0.08109955  0.92707289  0.19049654     0.05600
C607        C  0.11302278  0.95214523  0.16861199    -0.06700
C608        C  0.13414208  0.93009234  0.15363774    -0.07500
C609        C  0.12361211  0.88287460  0.15970659    -0.02000
C610        C  0.09375418  0.85907534  0.18284342     0.04800
N611        N  0.08440310  0.81280908  0.19213935     0.67300
H612        H  0.04910989  0.86215313  0.21491786     0.16200
H613        H  0.15793403  0.94964382  0.13659039     0.15900
N614        N  0.12223081  0.99884973  0.16033717     0.75000
O615        O  0.04235088  0.77778382  0.18957253    -0.38400
O616        O  0.11056441  0.81084857  0.21108328    -0.38400
O617        O  0.16438169  0.53420934  0.16178287    -0.39100
O618        O  0.08994023  0.50357281  0.14811288    -0.39100
C619        C  0.35149768  0.58240141  0.42492575    -0.11400
C620        C  0.38084081  0.61932346  0.40642991     0.05600
C621        C  0.43031728  0.63413783  0.40503730    -0.06700
C622        C  0.44906150  0.61077041  0.42101180    -0.07500
C623        C  0.41948578  0.57259217  0.43869889    -0.02000
C624        C  0.37005588  0.55814217  0.44044783     0.04800
N625        N  0.33829314  0.51955030  0.45820186     0.67300
H626        H  0.31440099  0.57206900  0.42702530     0.16200
H627        H  0.48714080  0.62324322  0.41990897     0.15900
N628        N  0.46327041  0.67623473  0.39014940     0.75000
O629        O  0.32637407  0.02849473  0.48131931    -0.38400
O630        O  0.31667790  0.47723362  0.44906273    -0.38400
O631        O  0.48221725  0.71560932  0.40286544    -0.39100
O632        O  0.48504468  0.67203958  0.36952134    -0.39100
C633        C  0.38757726  0.83700806  0.42219955    -0.11400
C634        C  0.42406014  0.84392031  0.44082148     0.05600
C635        C  0.43712395  0.80791540  0.44321670    -0.06700
C636        C  0.41388215  0.76635409  0.42698422    -0.07500
C637        C  0.37852074  0.76034199  0.40767792    -0.02000
C638        C  0.36478927  0.79586979  0.40580464     0.04800
N639        N  0.32534700  0.78932546  0.38899534     0.67300
H640        H  0.37626062  0.86367267  0.42044917     0.16200
H641        H  0.42414871  0.73899973  0.42911390     0.15900
N642        N  0.97297358  0.81241860  0.46248231     0.75000
O643        O  0.28331525  0.76400688  0.39844925    -0.38400
O644        O  0.33248930  0.81948582  0.37010176    -0.38400
O645        O  0.96100789  0.79688958  0.48689601    -0.39100
O646        O  0.01510105  0.82555756  0.45409458    -0.39100
C647        C  0.22767348  0.64714897  0.42329562    -0.11400
C648        C  0.23730215  0.61777367  0.40620932     0.05600
C649        C  0.20469534  0.56787658  0.40610872    -0.06700
C650        C  0.16321500  0.54869686  0.42252693    -0.07500
C651        C  0.15298013  0.57811462  0.43919671    -0.02000
C652        C  0.18562375  0.62805425  0.43934573     0.04800
N653        N  0.17724181  0.65980451  0.45606137     0.67300
H654        H  0.25283192  0.68518287  0.42409300     0.16200
H655        H  0.13897893  0.51027474  0.42231329     0.15900
N656        N  0.21442615  0.53533709  0.39124730     0.75000
O657        O  0.18913579  0.66524474  0.48122556    -0.38400
O658        O  0.16370387  0.68679798  0.44491670    -0.38400
O659        O  0.18665309  0.51168188  0.37176748    -0.39100
O660        O  0.23734376  0.51812246  0.40350921    -0.39100
C661        C  0.41277509  0.64712227  0.32206377    -0.11400
C662        C  0.37949892  0.61905813  0.34263285     0.05600
C663        C  0.36766049  0.57056125  0.34587408    -0.06700
C664        C  0.39139520  0.55225094  0.32998660    -0.07500
C665        C  0.42485051  0.58038125  0.30969917    -0.02000
C666        C  0.43546196  0.62817397  0.30563158     0.04800
N667        N  0.47132746  0.65863375  0.28610509     0.67300
H668        H  0.42221978  0.68433618  0.31928724     0.16200
H669        H  0.38166155  0.51488623  0.33242448     0.15900
N670        N  0.32796520  0.53802273  0.36269798     0.75000
O671        O  0.45901504  0.66953843  0.26361265    -0.38400
O672        O  0.51520410  0.67919193  0.29276222    -0.38400
O673        O  0.28651520  0.53038411  0.35645145    -0.39100
O674        O  0.33193934  0.50813049  0.37799221    -0.39100
C675        C  0.35546126  0.76678328  0.32143976    -0.11400
C676        C  0.38157107  0.76257541  0.34357671     0.05600
C677        C  0.42864628  0.80079139  0.34863495    -0.06700
C678        C  0.44644692  0.84367205  0.33351735    -0.07500
C679        C  0.41997377  0.84798616  0.31177952    -0.02000
C680        C  0.37432281  0.80889423  0.30548872     0.04800
N681        N  0.34597166  0.81215829  0.28363304     0.67300
H682        H  0.31992250  0.73749456  0.31668219     0.16600
H683        H  0.48272501  0.87253844  0.33735441     0.15900
N684        N  0.46108576  0.79422229  0.36601784     0.75000
O685        O  0.34104474  0.78992327  0.26134933    -0.38400
O686        O  0.32072231  0.83170910  0.28799166    -0.38400
O687        O  0.46907255  0.76039091  0.36064501    -0.39100
O688        O  0.49018512  0.82800327  0.38127564    -0.39100
C689        C  0.22856135  0.58340674  0.32538096    -0.11400
C690        C  0.23782897  0.62144484  0.34312043     0.05600
C691        C  0.20376798  0.63723887  0.34504973    -0.06700
C692        C  0.16015457  0.61305031  0.33062961    -0.07500
C693        C  0.15048194  0.57423097  0.31357259    -0.02000
C694        C  0.18471681  0.55894656  0.31116128     0.04800
N695        N  0.17400941  0.51691054  0.29564449     0.67300
H696        H  0.25450446  0.57121052  0.32357612     0.16200
H697        H  0.13483682  0.62623463  0.33155463     0.15900
N698        N  0.21513327  0.68073147  0.35898715     0.75000
O699        O  0.20363527  0.01802670  0.27800723    -0.38400
O700        O  0.13620990  0.47771633  0.30082007    -0.38400
O701        O  0.24920928  0.71964296  0.34977659    -0.39100
O702        O  0.18458498  0.68192899  0.37500916    -0.39100
C703        C  0.33306089  0.66765636  0.84801831     0.46300
H704        H  0.33321148  0.66809605  0.82503795    -0.02700
C705        C  0.33230141  0.66592561  0.90184071     0.46400
H706        H  0.33180166  0.66506985  0.92482922    -0.02700
C707        C  0.35823394  0.64156766  0.86049772    -0.16400
C708        C  0.35857872  0.71808651  0.86103547    -0.16200
C709        C  0.28204909  0.64225669  0.86053270    -0.16500
C710        C  0.35862423  0.64149112  0.88899513    -0.16500
C711        C  0.35736173  0.71711414  0.88958552    -0.16100
C712        C  0.28169816  0.64049944  0.88893900    -0.16400
C713        C  0.16732310  0.83181283  0.65246704     0.46300
H714        H  0.16904468  0.83079260  0.67524694    -0.02700
C715        C  0.16720627  0.83480975  0.59878968     0.46400
H716        H  0.16738113  0.83630474  0.57589858    -0.02700
C717        C  0.21774833  0.85644394  0.63967941    -0.16400
C718        C  0.14014397  0.78214196  0.63895359    -0.16200
C719        C  0.14302106  0.85921673  0.64112513    -0.16500
C720        C  0.21810196  0.85771669  0.61132669    -0.16500
C721        C  0.14026244  0.78331861  0.61050847    -0.16100
C722        C  0.14317740  0.86111825  0.61252902    -0.16400
Zn723      Zn  0.03380009  0.96677603  0.98719661     1.49700
Zn724      Zn  0.43382200  0.96501322  0.98710872     1.49400
Zn725      Zn  0.50090209  0.00156174  0.54120629     1.49100
Zn726      Zn  0.03134457  0.56565206  0.98650380     1.49500
O727        O  0.50003599  0.99968875  0.00061347    -1.83300
O728        O  0.49041307  0.90703659  0.96501443    -0.73900
O729        O  0.38772327  0.94176923  0.51881838    -0.73700
O730        O  0.03034612  0.96310193  0.55662924    -0.73200
O731        O  0.42115080  0.90723459  0.96452704    -0.73900
O732        O  0.05817375  0.94482926  0.51913501    -0.73500
O733        O  0.43297669  0.97227494  0.55627307    -0.74100
O734        O  0.05515986  0.61415336  0.51721826    -0.73500
O735        O  0.41757315  0.50737559  0.96385099    -0.74300
O736        O  0.03990992  0.57005243  0.55539311    -0.73600
O737        O  0.48596463  0.57689560  0.96309727    -0.74100
O738        O  0.08934162  0.58020814  0.96356160    -0.74000
O739        O  0.09089781  0.51174253  0.96370070    -0.73800
C740        C  0.44646990  0.88824843  0.95778845     0.78000
C741        C  0.39192403  0.94840204  0.54481068     0.78500
C742        C  0.05280674  0.94415175  0.54524562     0.77400
C743        C  0.05778629  0.61082682  0.54332601     0.77800
C744        C  0.44205183  0.55100829  0.95613985     0.78900
C745        C  0.10877783  0.55560099  0.95641724     0.78000
Zn746      Zn  0.06705743  0.53412420  0.73775725     1.49700
Zn747      Zn  0.99852472  0.00066920  0.79092019     1.49400
Zn748      Zn  0.46685146  0.53338788  0.73537336     1.49100
Zn749      Zn  0.46852590  0.93477591  0.73691427     1.49500
O750        O  0.00011226  0.00076940  0.75034544    -1.83300
O751        O  0.11276769  0.55464060  0.76991389    -0.73900
O752        O  0.46382187  0.53457527  0.80447209    -0.73700
O753        O  0.01067851  0.58815207  0.71012396    -0.73200
O754        O  0.06576016  0.53512721  0.80716641    -0.73900
O755        O  0.08152904  0.59228692  0.71519877    -0.73500
O756        O  0.44627460  0.56183533  0.76626990    -0.74100
O757        O  0.41247636  0.92044180  0.71242762    -0.73500
O758        O  0.46397185  0.93269186  0.80605513    -0.74300
O759        O  0.40769210  0.98704929  0.71359102    -0.73600
O760        O  0.44140186  0.88747912  0.76831996    -0.74100
O761        O  0.01473305  0.92183575  0.71532396    -0.74000
O762        O  0.08196920  0.99249408  0.71360219    -0.73800
C763        C  0.10728883  0.55349986  0.79603095     0.78000
C764        C  0.44653527  0.55818087  0.79252157     0.78500
C765        C  0.05566134  0.60843121  0.70501696     0.77400
C766        C  0.39148501  0.94383735  0.70569875     0.77800
C767        C  0.44259692  0.89173739  0.79448558     0.78900
C768        C  0.05796573  0.94841105  0.70715214     0.78000
C769        C  0.12830915  0.70171670  0.59926218    -0.11400
C770        C  0.11975255  0.73961905  0.59255809     0.05600
C771        C  0.09291176  0.73563920  0.56849146    -0.06700
C772        C  0.07483826  0.69422177  0.55219688    -0.07500
C773        C  0.08131360  0.65548423  0.55984179    -0.02000
C774        C  0.10881461  0.65971111  0.58353043     0.04800
N775        N  0.11882742  0.62244873  0.59132932     0.67300
H776        H  0.15108629  0.70492258  0.61660446     0.16200
H777        H  0.05338695  0.69131602  0.53418858     0.15900
N778        N  0.08064607  0.77158156  0.56131048     0.75000
O779        O  0.14663045  0.61437167  0.57662989    -0.38400
O780        O  0.10533495  0.60223916  0.61465677    -0.38400
O781        O  0.09009216  0.79005492  0.53740275    -0.39100
O782        O  0.05266899  0.77808001  0.57679114    -0.39100
C783        C  0.30958206  0.88156378  0.55427308    -0.11400
C784        C  0.34777247  0.92656454  0.56184708     0.05600
C785        C  0.34302936  0.94923018  0.58551756    -0.06700
C786        C  0.30053170  0.92672310  0.60105581    -0.07500
C787        C  0.26283912  0.88080474  0.59414453    -0.02000
C788        C  0.26776126  0.85824029  0.57039241     0.04800
N789        N  0.23219922  0.81039833  0.56332962     0.67300
H790        H  0.31303469  0.86339151  0.53633408     0.16200
H791        H  0.29684186  0.94591018  0.61827135     0.15900
N792        N  0.38017465  0.49587324  0.59347320     0.75000
O793        O  0.21216910  0.80215238  0.53995273    -0.38400
O794        O  0.22836306  0.77583027  0.57782454    -0.38400
O795        O  0.38134202  0.53262363  0.58307921    -0.39100
O796        O  0.40678041  0.50032833  0.61381594    -0.39100
C797        C  0.07382814  0.87449215  0.60215130    -0.11400
C798        C  0.12053262  0.88369477  0.59565063     0.05600
C799        C  0.14410754  0.91230976  0.57223616    -0.06700
C800        C  0.12050299  0.93002578  0.55563294    -0.07500
C801        C  0.07447508  0.92183769  0.56255404    -0.02000
C802        C  0.05105447  0.89396853  0.58616170     0.04800
N803        N  0.50350210  0.88358870  0.59354104     0.67300
H804        H  0.05449501  0.85130755  0.61946689     0.16200
H805        H  0.13928956  0.95240072  0.53791719     0.15900
N806        N  0.19321078  0.92668470  0.56614477     0.75000
O807        O  0.46845553  0.85726948  0.57814061    -0.38400
O808        O  0.49573930  0.89585414  0.61688861    -0.38400
O809        O  0.20488369  0.92060611  0.54219123    -0.39100
O810        O  0.22564922  0.95340916  0.58286411    -0.39100
C811        C  0.14659322  0.72851982  0.67327758    -0.11400
C812        C  0.11710469  0.73782414  0.65593430     0.05600
C813        C  0.06775083  0.70345301  0.65362985    -0.06700
C814        C  0.04874171  0.66138229  0.66959764    -0.07500
C815        C  0.07815205  0.65201118  0.68720875    -0.02000
C816        C  0.12806628  0.68542670  0.68812089     0.04800
N817        N  0.16076137  0.67576741  0.70330042     0.67300
H818        H  0.18485280  0.75396537  0.67424623     0.16200
H819        H  0.01061748  0.63578512  0.66813186     0.15900
N820        N  0.03665081  0.71011218  0.63494470     0.75000
O821        O  0.17471552  0.64866260  0.69295916    -0.38400
O822        O  0.18269957  0.70126516  0.72387629    -0.38400
O823        O  0.03345135  0.74774288  0.63580204    -0.39100
O824        O  0.00991646  0.67687288  0.61866409    -0.39100
C825        C  0.29192291  0.85817261  0.65710892    -0.11400
C826        C  0.26145991  0.87787946  0.65715607     0.05600
C827        C  0.27318559  0.91836612  0.67352804    -0.06700
C828        C  0.31563193  0.93922947  0.68900909    -0.07500
C829        C  0.34682371  0.92015232  0.68885039    -0.02000
C830        C  0.33414040  0.87858665  0.67292083     0.04800
N831        N  0.36385664  0.85691008  0.67224952     0.67300
H832        H  0.28287000  0.82681054  0.64468274     0.16200
H833        H  0.32425738  0.97077553  0.70113838     0.15900
N834        N  0.24364700  0.94027129  0.67350973     0.75000
O835        O  0.35412879  0.82155789  0.68786601    -0.38400
O836        O  0.39447289  0.86778660  0.65313817    -0.38400
O837        O  0.22380830  0.94211522  0.69567348    -0.39100
O838        O  0.24498749  0.96549356  0.65303786    -0.39100
C839        C  0.07224225  0.88099473  0.69747142    -0.11400
C840        C  0.08106921  0.92703218  0.69049494     0.05600
C841        C  0.11300626  0.95211813  0.66861846    -0.06700
C842        C  0.13411352  0.93006760  0.65363096    -0.07500
C843        C  0.12358246  0.88284625  0.65968896    -0.02000
C844        C  0.09370287  0.85902550  0.68281584     0.04800
N845        N  0.08432102  0.81273862  0.69209215     0.67300
H846        H  0.04903974  0.86208103  0.71488753     0.16200
H847        H  0.15790922  0.94963106  0.63658741     0.15900
N848        N  0.12224916  0.99884295  0.66036820     0.75000
O849        O  0.04223629  0.77775248  0.68956240    -0.38400
O850        O  0.11051299  0.81073911  0.71100323    -0.38400
O851        O  0.16431183  0.53414711  0.66164324    -0.39100
O852        O  0.08977434  0.50345528  0.64814460    -0.39100
C853        C  0.35157571  0.58246031  0.92496279    -0.11400
C854        C  0.38091824  0.61938123  0.90646610     0.05600
C855        C  0.43039565  0.63420372  0.90507386    -0.06700
C856        C  0.44914360  0.61083627  0.92104447    -0.07500
C857        C  0.41956615  0.57264714  0.93872484    -0.02000
C858        C  0.37013654  0.55819780  0.94047933     0.04800
N859        N  0.33837196  0.51959615  0.95822843     0.67300
H860        H  0.31448773  0.57212391  0.92705701     0.16200
H861        H  0.48721873  0.62330982  0.91994019     0.15900
N862        N  0.46334586  0.67630228  0.89018636     0.75000
O863        O  0.32643300  0.02860095  0.98142319    -0.38400
O864        O  0.31694178  0.47725495  0.94912150    -0.38400
O865        O  0.48240812  0.71565433  0.90292832    -0.39100
O866        O  0.48500930  0.67209362  0.86950700    -0.39100
C867        C  0.38750972  0.83698047  0.92224344    -0.11400
C868        C  0.42399788  0.84390653  0.94086452     0.05600
C869        C  0.43709256  0.80792294  0.94325210    -0.06700
C870        C  0.41388610  0.76637537  0.92700614    -0.07500
C871        C  0.37851612  0.76034827  0.90770172    -0.02000
C872        C  0.36475172  0.79585308  0.90583804     0.04800
N873        N  0.32532539  0.78931093  0.88901501     0.67300
H874        H  0.37617627  0.86363259  0.92049471     0.16200
H875        H  0.42418197  0.73904028  0.92912626     0.15900
N876        N  0.97306857  0.81244001  0.96244713     0.75000
O877        O  0.28329229  0.76412462  0.89849515    -0.38400
O878        O  0.33251941  0.81940696  0.87007249    -0.38400
O879        O  0.96112219  0.79674711  0.98683416    -0.39100
O880        O  0.01522556  0.82574572  0.95404703    -0.39100
C881        C  0.22766054  0.64716392  0.92326357    -0.11400
C882        C  0.23734471  0.61776398  0.90623371     0.05600
C883        C  0.20480052  0.56785212  0.90619443    -0.06700
C884        C  0.16332064  0.54868227  0.92260984    -0.07500
C885        C  0.15302173  0.57812227  0.93921753    -0.02000
C886        C  0.18560936  0.62807608  0.93931146     0.04800
N887        N  0.17716768  0.65985154  0.95596574     0.67300
H888        H  0.25277506  0.68520939  0.92401724     0.16200
H889        H  0.13912983  0.51025080  0.92243635     0.15900
N890        N  0.21457503  0.53529404  0.89138796     0.75000
O891        O  0.18905267  0.66539727  0.98113165    -0.38400
O892        O  0.16356880  0.68675421  0.94476490    -0.38400
O893        O  0.18696493  0.51176207  0.87182272    -0.39100
O894        O  0.23724758  0.51791031  0.90375357    -0.39100
C895        C  0.41273699  0.64709987  0.82204622    -0.11400
C896        C  0.37955558  0.61907258  0.84266346     0.05600
C897        C  0.36778683  0.57059996  0.84594101    -0.06700
C898        C  0.39150798  0.55228962  0.83004079    -0.07500
C899        C  0.42485967  0.58038081  0.80969966    -0.02000
C900        C  0.43539149  0.62814172  0.80559524     0.04800
N901        N  0.47113848  0.65856307  0.78600287     0.67300
H902        H  0.42212796  0.68429393  0.81924099     0.16200
H903        H  0.38183353  0.51494587  0.83250861     0.15900
N904        N  0.32816947  0.53807870  0.86282047     0.75000
O905        O  0.45868205  0.66931157  0.76350895    -0.38400
O906        O  0.51504717  0.67924291  0.79259724    -0.38400
O907        O  0.28671596  0.53059325  0.85672563    -0.39100
O908        O  0.33215866  0.50811392  0.87804001    -0.39100
C909        C  0.35551343  0.76672276  0.82142091    -0.11400
C910        C  0.38159309  0.76256972  0.84359305     0.05600
C911        C  0.42863448  0.80083149  0.84867694    -0.06700
C912        C  0.44641033  0.84370391  0.83355430    -0.07500
C913        C  0.41995823  0.84796798  0.81178689    -0.02000
C914        C  0.37435393  0.80882801  0.80546694     0.04800
N915        N  0.34602277  0.81203506  0.78357911     0.67300
H916        H  0.32000372  0.73740128  0.81664321     0.16600
H917        H  0.48266088  0.87260741  0.83741237     0.15900
N918        N  0.46107407  0.79432677  0.86609745     0.75000
O919        O  0.34087699  0.78951082  0.76138373    -0.38400
O920        O  0.32101368  0.83187735  0.78783486    -0.38400
O921        O  0.46905224  0.76046688  0.86079538    -0.39100
O922        O  0.49016231  0.82815642  0.88133213    -0.39100
C923        C  0.22856536  0.58334720  0.82543121    -0.11400
C924        C  0.23786532  0.62142180  0.84314831     0.05600
C925        C  0.20383622  0.63726072  0.84505458    -0.06700
C926        C  0.16022499  0.61308860  0.83062927    -0.07500
C927        C  0.15052227  0.57423939  0.81359064    -0.02000
C928        C  0.18472295  0.55890564  0.81120648     0.04800
N929        N  0.17398085  0.51683978  0.79571167     0.67300
H930        H  0.25447710  0.57110449  0.82365182     0.16200
H931        H  0.13493296  0.62630624  0.83153615     0.15900
N932        N  0.21522928  0.68077153  0.85898031     0.75000
O933        O  0.20370153  0.01802840  0.77803394    -0.38400
O934        O  0.13617180  0.47766498  0.80090655    -0.38400
O935        O  0.24938053  0.71965738  0.84979665    -0.39100
O936        O  0.18466918  0.68202426  0.87496734    -0.39100
C937        C  0.83304788  0.16764754  0.34800477     0.46300
H938        H  0.83319613  0.16808462  0.32502434    -0.02700
C939        C  0.83229525  0.16592421  0.40182747     0.46400
H940        H  0.83179806  0.16507179  0.42481605    -0.02700
C941        C  0.85821525  0.14155344  0.36048499    -0.16400
C942        C  0.85857518  0.21807854  0.36101941    -0.16200
C943        C  0.78203786  0.14225896  0.36052152    -0.16500
C944        C  0.85860878  0.14148028  0.38898242    -0.16500
C945        C  0.85736294  0.21711132  0.38956956    -0.16100
C946        C  0.78169027  0.14050337  0.38892768    -0.16400
C947        C  0.66732388  0.33181752  0.15247146     0.46300
H948        H  0.66904835  0.33080178  0.17525172    -0.02700
C949        C  0.66719199  0.33480442  0.09879384     0.46400
H950        H  0.66735354  0.33629230  0.07590270    -0.02700
C951        C  0.71774618  0.35644728  0.13967914    -0.16400
C952        C  0.64014423  0.28214506  0.13896128    -0.16200
C953        C  0.64301636  0.35921619  0.14112986    -0.16500
C954        C  0.71809212  0.35771621  0.11132550    -0.16500
C955        C  0.64025408  0.28331707  0.11051674    -0.16100
C956        C  0.64316669  0.36111385  0.11253431    -0.16400
Zn957      Zn  0.53381188  0.46679143  0.48719489     1.49700
Zn958      Zn  0.93381919  0.46500288  0.48709671     1.49400
Zn959      Zn  0.00089256  0.50156343  0.04120308     1.49100
Zn960      Zn  0.53135485  0.06565259  0.48651094     1.49500
O961        O  0.00003239  0.49968252  0.50060402    -1.83300
O962        O  0.99042074  0.40703117  0.46500655    -0.73900
O963        O  0.88771429  0.44177968  0.01881314    -0.73700
O964        O  0.53033850  0.46309595  0.05663700    -0.73200
O965        O  0.92116092  0.40723394  0.46450742    -0.73900
O966        O  0.55816408  0.44482175  0.01914204    -0.73500
O967        O  0.93296542  0.47227663  0.05626920    -0.74100
O968        O  0.55515088  0.11415427  0.01723152    -0.73500
O969        O  0.91756146  0.00736615  0.46383975    -0.74300
O970        O  0.53991938  0.07005097  0.05540462    -0.73600
O971        O  0.98595179  0.07688676  0.46308093    -0.74100
O972        O  0.58934540  0.08020613  0.46356303    -0.74000
O973        O  0.59090290  0.01174124  0.46369978    -0.73800
C974        C  0.94648199  0.38824792  0.45777224     0.78000
C975        C  0.89191291  0.44840977  0.04480566     0.78500
C976        C  0.55279602  0.44414350  0.04525260     0.77400
C977        C  0.55778316  0.11082562  0.04333878     0.77800
C978        C  0.94203885  0.05099696  0.45612486     0.78900
C979        C  0.60878094  0.05559953  0.45641613     0.78000
Zn980      Zn  0.56704398  0.03412607  0.23775512     1.49700
Zn981      Zn  0.49853092  0.50067391  0.29092365     1.49400
Zn982      Zn  0.96687069  0.03340002  0.23537837     1.49100
Zn983      Zn  0.96852328  0.43477891  0.23691032     1.49500
O984        O  0.50010922  0.50076487  0.25034904    -1.83300
O985        O  0.61275181  0.05465278  0.26991190    -0.73900
O986        O  0.96385103  0.03458890  0.30447842    -0.73700
O987        O  0.51065769  0.08814968  0.21012414    -0.73200
O988        O  0.56574241  0.03512570  0.30716414    -0.73900
O989        O  0.58150847  0.09228467  0.21519866    -0.73500
O990        O  0.94629658  0.06184440  0.26627657    -0.74100
O991        O  0.91247967  0.42044998  0.21242053    -0.73500
O992        O  0.96397231  0.43269023  0.30605177    -0.74300
O993        O  0.90768809  0.48705341  0.21359291    -0.73600
O994        O  0.94139461  0.38748100  0.26831503    -0.74100
O995        O  0.51472128  0.42182627  0.21532898    -0.74000
O996        O  0.58195540  0.49248538  0.21360104    -0.73800
C997        C  0.60727129  0.05350887  0.29602876     0.78000
C998        C  0.94656069  0.05819148  0.29252817     0.78500
C999        C  0.55564117  0.10843028  0.20501857     0.77400
C1000       C  0.89148646  0.44384514  0.20569504     0.77800
C1001       C  0.94259345  0.39173739  0.29448085     0.78900
C1002       C  0.55795194  0.44840141  0.20715376     0.78000
C1003       C  0.62831984  0.20172709  0.09926589    -0.11400
C1004       C  0.61973548  0.23961435  0.09257082     0.05600
C1005       C  0.59286129  0.23561847  0.06851695    -0.06700
C1006       C  0.57478736  0.19420057  0.05222297    -0.07500
C1007       C  0.58130007  0.15548097  0.05985578    -0.02000
C1008       C  0.60883133  0.15972380  0.08353264     0.04800
N1009       N  0.61888789  0.12248420  0.09131384     0.67300
H1010       H  0.65111591  0.20494573  0.11660102     0.16200
H1011       H  0.55331153  0.19128103  0.03422401     0.15900
N1012       N  0.58056874  0.27154663  0.06134792     0.75000
O1013       O  0.64676343  0.11449731  0.07662398    -0.38400
O1014       O  0.60537254  0.10222120  0.11462620    -0.38400
O1015       O  0.58997784  0.29001289  0.03743835    -0.39100
O1016       O  0.55259919  0.27803331  0.07684186    -0.39100
C1017       C  0.80955607  0.38158883  0.05425603    -0.11400
C1018       C  0.84775866  0.42657478  0.06184041     0.05600
C1019       C  0.84302412  0.44922755  0.08551963    -0.06700
C1020       C  0.80052565  0.42671943  0.10105657    -0.07500
C1021       C  0.76282435  0.38081015  0.09413832    -0.02000
C1022       C  0.76773448  0.35826269  0.07037405     0.04800
N1023       N  0.73215728  0.31043564  0.06329481     0.67300
H1024       H  0.81299928  0.36342619  0.03630727     0.16200
H1025       H  0.79684225  0.44590251  0.11828139     0.15900
N1026       N  0.88013317  0.99592146  0.09343838     0.75000
O1027       O  0.71212067  0.30222935  0.03992086    -0.38400
O1028       O  0.72831656  0.27584213  0.07776602    -0.38400
O1029       O  0.88130363  0.03263684  0.08298800    -0.39100
O1030       O  0.90671727  0.00044325  0.11380460    -0.39100
C1031       C  0.57381769  0.37448838  0.10215938    -0.11400
C1032       C  0.62052105  0.38368958  0.09565720     0.05600
C1033       C  0.64409427  0.41230140  0.07224160    -0.06700
C1034       C  0.62048906  0.43001565  0.05563843    -0.07500
C1035       C  0.57446199  0.42182802  0.06256036    -0.02000
C1036       C  0.55104237  0.39396178  0.08616907     0.04800
N1037       N  0.00349761  0.38358183  0.09353456     0.67300
H1038       H  0.55448593  0.35130563  0.11947584     0.16200
H1039       H  0.63927462  0.45238898  0.03792194     0.15900
N1040       N  0.69319646  0.42667443  0.06614855     0.75000
O1041       O  0.96845475  0.35725376  0.07813416    -0.38400
O1042       O  0.99572903  0.39585076  0.11687954    -0.38400
O1043       O  0.70486527  0.42058939  0.04219532    -0.39100
O1044       O  0.72563766  0.45340458  0.08286490    -0.39100
C1045       C  0.64658069  0.22852401  0.17329025    -0.11400
C1046       C  0.61709827  0.23782892  0.15594259     0.05600
C1047       C  0.56774305  0.20346085  0.15363491    -0.06700
C1048       C  0.54873005  0.16138666  0.16960019    -0.07500
C1049       C  0.57813522  0.15201398  0.18721433    -0.02000
C1050       C  0.62804819  0.18543169  0.18813408     0.04800
N1051       N  0.66073657  0.17577732  0.20332438     0.67300
H1052       H  0.68483971  0.25396996  0.17426361     0.16200
H1053       H  0.51060607  0.13578975  0.16813241     0.15900
N1054       N  0.53664330  0.21013235  0.13495461     0.75000
O1055       O  0.67471748  0.14869172  0.19298636    -0.38400
O1056       O  0.68264226  0.20126224  0.22391067    -0.38400
O1057       O  0.53356931  0.24783580  0.13575753    -0.39100
O1058       O  0.50981916  0.17685987  0.11871639    -0.39100
C1059       C  0.79194574  0.35820178  0.15708827    -0.11400
C1060       C  0.76146101  0.37788379  0.15715374     0.05600
C1061       C  0.77317007  0.41835052  0.17354061    -0.06700
C1062       C  0.81561650  0.43921521  0.18902132    -0.07500
C1063       C  0.84682815  0.42016228  0.18884490    -0.02000
C1064       C  0.83416731  0.37862125  0.17289669     0.04800
N1065       N  0.86391552  0.35698140  0.17219901     0.67300
H1066       H  0.78290913  0.32685812  0.14464845     0.16200
H1067       H  0.82422763  0.47074466  0.20116334     0.15900
N1068       N  0.74361932  0.44024173  0.17353344     0.75000
O1069       O  0.85420866  0.32160374  0.18778875    -0.38400
O1070       O  0.89454482  0.36792173  0.15308874    -0.38400
O1071       O  0.72377602  0.44206296  0.19570067    -0.39100
O1072       O  0.74495924  0.46548045  0.15307039    -0.39100
C1073       C  0.57221328  0.38097719  0.19746602    -0.11400
C1074       C  0.58105446  0.42702224  0.19049626     0.05600
C1075       C  0.61300715  0.45211633  0.16862726    -0.06700
C1076       C  0.63411387  0.43006640  0.15363937    -0.07500
C1077       C  0.62357385  0.38284131  0.15969274    -0.02000
C1078       C  0.59367752  0.35901036  0.18281165     0.04800
N1079       N  0.58427946  0.31271365  0.19207893     0.67300
H1080       H  0.54899796  0.36205608  0.21487625     0.16200
H1081       H  0.65791775  0.44963393  0.13659954     0.15900
N1082       N  0.62227132  0.49885212  0.16038636     0.75000
O1083       O  0.54219005  0.27773728  0.18954426    -0.38400
O1084       O  0.61046587  0.31069317  0.21098623    -0.38400
O1085       O  0.66436881  0.03417208  0.16171342    -0.39100
O1086       O  0.58988301  0.00351410  0.14812301    -0.39100
C1087       C  0.85156504  0.08246413  0.42495947    -0.11400
C1088       C  0.88090435  0.11937099  0.40645335     0.05600
C1089       C  0.93037639  0.13417553  0.40504886    -0.06700
C1090       C  0.94912510  0.11080497  0.42101697    -0.07500
C1091       C  0.91955095  0.07263105  0.43870775    -0.02000
C1092       C  0.87012695  0.05819815  0.44047312     0.04800
N1093       N  0.83836626  0.01960913  0.45823074     0.67300
H1094       H  0.81449594  0.07214737  0.42706365     0.16200
H1095       H  0.98719168  0.12326504  0.41990532     0.15900
N1096       N  0.96332559  0.17626690  0.39015523     0.75000
O1097       O  0.82641391  0.52854788  0.48140589    -0.38400
O1098       O  0.81691977  0.97726375  0.44913044    -0.38400
O1099       O  0.98232895  0.21563609  0.40287820    -0.39100
O1100       O  0.98504237  0.17205724  0.36950290    -0.39100
C1101       C  0.88754253  0.33699667  0.42221396    -0.11400
C1102       C  0.92401691  0.34391164  0.44084296     0.05600
C1103       C  0.93709627  0.30791768  0.44323735    -0.06700
C1104       C  0.91388343  0.26636778  0.42699364    -0.07500
C1105       C  0.87852536  0.26034975  0.40768291    -0.02000
C1106       C  0.86477951  0.29586751  0.40580995     0.04800
N1107       N  0.82536201  0.28933360  0.38898104     0.67300
H1108       H  0.87622038  0.36365674  0.42046027     0.16200
H1109       H  0.92416524  0.23902354  0.42912083     0.15900
N1110       N  0.47305113  0.31243925  0.46246844     0.75000
O1111       O  0.78332060  0.26408800  0.39843697    -0.38400
O1112       O  0.83255245  0.31946489  0.37006086    -0.38400
O1113       O  0.46108331  0.29671726  0.48684883    -0.39100
O1114       O  0.51522099  0.32577235  0.45408143    -0.39100
C1115       C  0.72765234  0.14716637  0.42325251    -0.11400
C1116       C  0.73733864  0.11776689  0.40622379     0.05600
C1117       C  0.70479898  0.06785377  0.40618738    -0.06700
C1118       C  0.66332240  0.04868207  0.42260610    -0.07500
C1119       C  0.65302151  0.07812173  0.43921310    -0.02000
C1120       C  0.68560334  0.12807709  0.43930228     0.04800
N1121       N  0.67715700  0.15985375  0.45595245     0.67300
H1122       H  0.75276295  0.18521280  0.42400378     0.16200
H1123       H  0.63913571  0.01024980  0.42243560     0.15900
N1124       N  0.71457469  0.03529747  0.39137939     0.75000
O1125       O  0.68905144  0.16541493  0.48111687    -0.38400
O1126       O  0.66354795  0.18674559  0.44474799    -0.38400
O1127       O  0.68694063  0.01173503  0.37182948    -0.39100
O1128       O  0.73728823  0.01794877  0.40373468    -0.39100
C1129       C  0.91274237  0.14709880  0.32204531    -0.11400
C1130       C  0.87954229  0.11906231  0.34265253     0.05600
C1131       C  0.86777258  0.07058925  0.34592813    -0.06700
C1132       C  0.89150682  0.05228523  0.33003454    -0.07500
C1133       C  0.92488013  0.08038693  0.30970521    -0.02000
C1134       C  0.93541804  0.12815042  0.30560451     0.04800
N1135       N  0.97119621  0.15858505  0.28603007     0.67300
H1136       H  0.92213654  0.18429424  0.31924333     0.16200
H1137       H  0.88182893  0.01493998  0.33249897     0.15900
N1138       N  0.82814824  0.03806336  0.36280176     0.75000
O1139       O  0.95878116  0.16943841  0.26355622    -0.38400
O1140       O  0.01510134  0.17917394  0.29262664    -0.38400
O1141       O  0.78669209  0.03055146  0.35668926    -0.39100
O1142       O  0.83214306  0.00811526  0.37803358    -0.39100
C1143       C  0.85550306  0.26672510  0.32141260    -0.11400
C1144       C  0.88159082  0.26255885  0.34357558     0.05600
C1145       C  0.92864021  0.30080832  0.34865275    -0.06700
C1146       C  0.94641869  0.34368569  0.33353515    -0.07500
C1147       C  0.91995498  0.34796688  0.31178029    -0.02000
C1148       C  0.87434040  0.30883832  0.30546610     0.04800
N1149       N  0.84599440  0.31206806  0.28359478     0.67300
H1150       H  0.81998904  0.23740951  0.31663785     0.16600
H1151       H  0.98267727  0.37257868  0.33738677     0.15900
N1152       N  0.96108436  0.29428113  0.36605577     0.75000
O1153       O  0.84077721  0.28951372  0.26140297    -0.38400
O1154       O  0.82104889  0.33197499  0.28786277    -0.38400
O1155       O  0.96908875  0.26045133  0.36071334    -0.39100
O1156       O  0.99016440  0.32808648  0.38130682    -0.39100
C1157       C  0.72852742  0.08332443  0.32543939    -0.11400
C1158       C  0.73785193  0.12142648  0.34313957     0.05600
C1159       C  0.70384201  0.13729181  0.34503318    -0.06700
C1160       C  0.66023042  0.11312752  0.33060778    -0.07500
C1161       C  0.65050322  0.07425027  0.31358811    -0.02000
C1162       C  0.68467914  0.05888331  0.31122106     0.04800
N1163       N  0.67390230  0.01678319  0.29575248     0.67300
H1164       H  0.75442287  0.07106030  0.32366945     0.16200
H1165       H  0.63495526  0.12636689  0.33150304     0.15900
N1166       N  0.71525079  0.18081458  0.35894890     0.75000
O1167       O  0.70378541  0.51808480  0.27801706    -0.38400
O1168       O  0.63609330  0.97762485  0.30097685    -0.38400
O1169       O  0.74934903  0.21969928  0.34972592    -0.39100
O1170       O  0.68472128  0.18206530  0.37496277    -0.39100
C1171       C  0.83302929  0.16766509  0.84799563     0.46300
H1172       H  0.83318929  0.16811955  0.82501517    -0.02700
C1173       C  0.83225767  0.16590729  0.90181864     0.46400
H1174       H  0.83175535  0.16504120  0.92480693    -0.02700
C1175       C  0.85817474  0.14154609  0.86047114    -0.16400
C1176       C  0.85856247  0.21808780  0.86102087    -0.16200
C1177       C  0.78201454  0.14228236  0.86050672    -0.16500
C1178       C  0.85855525  0.14144934  0.88896807    -0.16500
C1179       C  0.85734501  0.21710209  0.88957055    -0.16100
C1180       C  0.78165529  0.14051447  0.88891390    -0.16400
C1181       C  0.66731257  0.33180176  0.65248944     0.46300
H1182       H  0.66902707  0.33077843  0.67526973    -0.02700
C1183       C  0.66720800  0.33479897  0.59881170     0.46400
H1184       H  0.66739315  0.33629155  0.57592000    -0.02700
C1185       C  0.71774011  0.35640582  0.63970736    -0.16400
C1186       C  0.64011037  0.28213172  0.63897546    -0.16200
C1187       C  0.64304320  0.35923504  0.64114291    -0.16500
C1188       C  0.71809829  0.35768013  0.61135534    -0.16500
C1189       C  0.64023587  0.28330834  0.61053021    -0.16100
C1190       C  0.64319941  0.36113222  0.61254619    -0.16400
Zn1191     Zn  0.53381736  0.46677648  0.98718751     1.49700
Zn1192     Zn  0.93384370  0.46500215  0.98707315     1.49400
Zn1193     Zn  0.00088730  0.50154298  0.54122259     1.49100
Zn1194     Zn  0.53133658  0.06564537  0.98653302     1.49500
O1195       O  0.00004713  0.49969540  0.00058633    -1.83300
O1196       O  0.99046086  0.40703931  0.96499165    -0.73900
O1197       O  0.88770141  0.44174356  0.51884402    -0.73700
O1198       O  0.53037124  0.46313717  0.55664297    -0.73200
O1199       O  0.92119256  0.40722187  0.96450283    -0.73900
O1200       O  0.55819131  0.44485704  0.51914904    -0.73500
O1201       O  0.93296259  0.47225301  0.55629595    -0.74100
O1202       O  0.55515716  0.11417756  0.51720884    -0.73500
O1203       O  0.91749553  0.00731613  0.96383774    -0.74300
O1204       O  0.53992065  0.07006852  0.55537889    -0.73600
O1205       O  0.98587496  0.07684806  0.96308508    -0.74100
O1206       O  0.58931779  0.08020429  0.96356917    -0.74000
O1207       O  0.59087186  0.01173688  0.96369325    -0.73800
C1208       C  0.94651971  0.38824620  0.95776184     0.78000
C1209       C  0.89190784  0.44837323  0.54483641     0.78500
C1210       C  0.55283378  0.44418701  0.54526036     0.77400
C1211       C  0.55778706  0.11084589  0.54331665     0.77800
C1212       C  0.94196512  0.05095002  0.95612447     0.78900
C1213       C  0.60874678  0.05559641  0.95641124     0.78000
Zn1214     Zn  0.56699236  0.03410753  0.73775710     1.49700
Zn1215     Zn  0.49851794  0.50066092  0.79090757     1.49400
Zn1216     Zn  0.96685022  0.03337413  0.73538447     1.49100
Zn1217     Zn  0.96856794  0.43478549  0.73691250     1.49500
O1218       O  0.50011922  0.50078707  0.75033328    -1.83300
O1219       O  0.61271100  0.05462978  0.76990397    -0.73900
O1220       O  0.96382712  0.03458649  0.80448439    -0.73700
O1221       O  0.51060253  0.08816755  0.71017040    -0.73200
O1222       O  0.56572338  0.03509410  0.80716621    -0.73900
O1223       O  0.58144399  0.09226784  0.71520911    -0.73500
O1224       O  0.94628120  0.06183692  0.76627748    -0.74100
O1225       O  0.91251197  0.42042753  0.71242513    -0.73500
O1226       O  0.96399965  0.43271822  0.80605310    -0.74300
O1227       O  0.90775129  0.48704787  0.71356060    -0.73600
O1228       O  0.94144551  0.38749908  0.76832090    -0.74100
O1229       O  0.51477467  0.42188858  0.71531113    -0.74000
O1230       O  0.58200793  0.49255209  0.71359978    -0.73800
C1231       C  0.60724559  0.05347958  0.79602196     0.78000
C1232       C  0.94653855  0.05818653  0.79252950     0.78500
C1233       C  0.55558016  0.10843380  0.70504976     0.77400
C1234       C  0.89152795  0.44382486  0.70568564     0.77800
C1235       C  0.94262975  0.39176096  0.79448566     0.78900
C1236       C  0.55801041  0.44846975  0.70714671     0.78000
C1237       C  0.62827315  0.20170442  0.59927687    -0.11400
C1238       C  0.61971849  0.23960962  0.59257803     0.05600
C1239       C  0.59288600  0.23564137  0.56850928    -0.06700
C1240       C  0.57482273  0.19423417  0.55220536    -0.07500
C1241       C  0.58130466  0.15549692  0.55984080    -0.02000
C1242       C  0.60879821  0.15971359  0.58353176     0.04800
N1243       N  0.61883313  0.12246040  0.59131573     0.67300
H1244       H  0.65103986  0.20490030  0.61662309     0.16200
H1245       H  0.55337679  0.19133669  0.53419594     0.15900
N1246       N  0.58062266  0.27158772  0.56133372     0.75000
O1247       O  0.64671569  0.11447042  0.57663450    -0.38400
O1248       O  0.60529113  0.10218689  0.61462368    -0.38400
O1249       O  0.59005278  0.29005547  0.53742454    -0.39100
O1250       O  0.55266656  0.27810109  0.57682415    -0.39100
C1251       C  0.80959241  0.38149964  0.55432050    -0.11400
C1252       C  0.84776064  0.42652639  0.56187622     0.05600
C1253       C  0.84300455  0.44920810  0.58553584    -0.06700
C1254       C  0.80051382  0.42669254  0.60107910    -0.07500
C1255       C  0.76283885  0.38076015  0.59417986    -0.02000
C1256       C  0.76777697  0.35817301  0.57044409     0.04800
N1257       N  0.73223789  0.31030791  0.56340693     0.67300
H1258       H  0.81306018  0.36331177  0.53639116     0.16200
H1259       H  0.79680672  0.44589020  0.61828946     0.15900
N1260       N  0.88016129  0.99589645  0.59342047     0.75000
O1261       O  0.71220657  0.30200161  0.54002889    -0.38400
O1262       O  0.72840693  0.27577810  0.57793801    -0.38400
O1263       O  0.88132422  0.03262070  0.58298924    -0.39100
O1264       O  0.90676982  0.00040159  0.61377084    -0.39100
C1265       C  0.57386417  0.37453544  0.60217295    -0.11400
C1266       C  0.62055866  0.38371451  0.59566527     0.05600
C1267       C  0.64412461  0.41231193  0.57224371    -0.06700
C1268       C  0.62052255  0.43003567  0.55564222    -0.07500
C1269       C  0.57450370  0.42187019  0.56256994    -0.02000
C1270       C  0.55109058  0.39401524  0.58618438     0.04800
N1271       N  0.00345592  0.38350141  0.59352715     0.67300
H1272       H  0.55453534  0.35136150  0.61949306     0.16200
H1273       H  0.63930433  0.45239698  0.53792119     0.15900
N1274       N  0.69321795  0.42666027  0.56614218     0.75000
O1275       O  0.96845134  0.35733581  0.57806092    -0.38400
O1276       O  0.99563051  0.39558857  0.61691302    -0.38400
O1277       O  0.70486301  0.42053301  0.54219200    -0.39100
O1278       O  0.72567672  0.45340132  0.58284668    -0.39100
C1279       C  0.64652877  0.22851660  0.67331610    -0.11400
C1280       C  0.61705496  0.23781586  0.65595745     0.05600
C1281       C  0.56769863  0.20345206  0.65365048    -0.06700
C1282       C  0.54867568  0.16138707  0.66962519    -0.07500
C1283       C  0.57807424  0.15201958  0.68724807    -0.02000
C1284       C  0.62798687  0.18543547  0.68817135     0.04800
N1285       N  0.66066454  0.17579423  0.70338271     0.67300
H1286       H  0.68478789  0.25396082  0.67429314     0.16200
H1287       H  0.51055160  0.13579122  0.66815545     0.15900
N1288       N  0.53660826  0.21011797  0.63496091     0.75000
O1289       O  0.67469926  0.14874669  0.69305201    -0.38400
O1290       O  0.68250403  0.20125375  0.72398986    -0.38400
O1291       O  0.53343949  0.24776663  0.63580428    -0.39100
O1292       O  0.50984975  0.17686856  0.61869235    -0.39100
C1293       C  0.79192162  0.35812881  0.65712693    -0.11400
C1294       C  0.76145346  0.37783076  0.65718460     0.05600
C1295       C  0.77318936  0.41831862  0.67355717    -0.06700
C1296       C  0.81565513  0.43919821  0.68902024    -0.07500
C1297       C  0.84685216  0.42012785  0.68884989    -0.02000
C1298       C  0.83415400  0.37855216  0.67292696     0.04800
N1299       N  0.86386967  0.35687513  0.67225063     0.67300
H1300       H  0.78286190  0.32676458  0.64470133     0.16200
H1301       H  0.82428673  0.47074650  0.70114888     0.15900
N1302       N  0.74363526  0.44020500  0.67356122     0.75000
O1303       O  0.85415460  0.32153217  0.68787230    -0.38400
O1304       O  0.89447166  0.36774144  0.65313212    -0.38400
O1305       O  0.72370196  0.44190637  0.69571952    -0.39100
O1306       O  0.74506607  0.46556030  0.65313793    -0.39100
C1307       C  0.57230717  0.38106488  0.69748881    -0.11400
C1308       C  0.58112234  0.42709250  0.69049736     0.05600
C1309       C  0.61305550  0.45216754  0.66861688    -0.06700
C1310       C  0.63416521  0.43010870  0.65363837    -0.07500
C1311       C  0.62362689  0.38288734  0.65970439    -0.02000
C1312       C  0.59376291  0.35908698  0.68283914     0.04800
N1313       N  0.58439971  0.31281522  0.69213207     0.67300
H1314       H  0.54911418  0.36216415  0.71491071     0.16200
H1315       H  0.65796055  0.44966044  0.63659224     0.15900
N1316       N  0.62228775  0.49888387  0.66035208     0.75000
O1317       O  0.54233996  0.27780058  0.68957042    -0.38400
O1318       O  0.61056097  0.31084437  0.71107246    -0.38400
O1319       O  0.66439898  0.03422266  0.66183717    -0.39100
O1320       O  0.58999894  0.00358927  0.64808971    -0.39100
C1321       C  0.85148596  0.08237489  0.92491784    -0.11400
C1322       C  0.88083394  0.11931301  0.90643235     0.05600
C1323       C  0.93031435  0.13414070  0.90504905    -0.06700
C1324       C  0.94905726  0.11077264  0.92102323    -0.07500
C1325       C  0.91947861  0.07258191  0.93870176    -0.02000
C1326       C  0.87004424  0.05811793  0.94044152     0.04800
N1327       N  0.83827911  0.01951651  0.95818916     0.67300
H1328       H  0.81437870  0.07202827  0.92700939     0.16200
H1329       H  0.98714167  0.12325568  0.91992626     0.15900
N1330       N  0.96326990  0.17624752  0.89016975     0.75000
O1331       O  0.82647544  0.52858907  0.98135922    -0.38400
O1332       O  0.81664104  0.97720830  0.94903808    -0.38400
O1333       O  0.98223716  0.21560889  0.90289988    -0.39100
O1334       O  0.98503034  0.17206249  0.86953151    -0.39100
C1335       C  0.88755815  0.33699116  0.92221645    -0.11400
C1336       C  0.92405458  0.34391312  0.94083025     0.05600
C1337       C  0.93712853  0.30791487  0.94322018    -0.06700
C1338       C  0.91388208  0.26635025  0.92699068    -0.07500
C1339       C  0.87851218  0.26033268  0.90768912    -0.02000
C1340       C  0.86477070  0.29585348  0.90582179     0.04800
N1341       N  0.82532477  0.28930774  0.88901574     0.67300
H1342       H  0.87623400  0.36365049  0.92046956     0.16200
H1343       H  0.92415655  0.23900117  0.92911575     0.15900
N1344       N  0.47298710  0.31242494  0.96248025     0.75000
O1345       O  0.78329920  0.26405764  0.89849292    -0.38400
O1346       O  0.83247966  0.31943468  0.87009926    -0.38400
O1347       O  0.46105297  0.29701095  0.98691583    -0.39100
O1348       O  0.51508471  0.32546624  0.95407686    -0.39100
C1349       C  0.72766395  0.14715569  0.92328757    -0.11400
C1350       C  0.73729662  0.11777587  0.90620753     0.05600
C1351       C  0.70469260  0.06787848  0.90611244    -0.06700
C1352       C  0.66321529  0.04870098  0.92253325    -0.07500
C1353       C  0.65297790  0.07812210  0.93919878    -0.02000
C1354       C  0.68561530  0.12806369  0.93933897     0.04800
N1355       N  0.67722801  0.15981989  0.95604586     0.67300
H1356       H  0.75281844  0.18518924  0.92407952     0.16200
H1357       H  0.63898242  0.01027876  0.92232337     0.15900
N1358       N  0.71441808  0.03533720  0.89124923     0.75000
O1359       O  0.68908367  0.16524411  0.98121611    -0.38400
O1360       O  0.66371926  0.18682880  0.94489069    -0.38400
O1361       O  0.68667139  0.01172353  0.87175063    -0.39100
O1362       O  0.73728804  0.01807746  0.90351889    -0.39100
C1363       C  0.91279263  0.14712829  0.82207515    -0.11400
C1364       C  0.87950239  0.11905902  0.84263703     0.05600
C1365       C  0.86764986  0.07055683  0.84587144    -0.06700
C1366       C  0.89138050  0.05224374  0.82998207    -0.07500
C1367       C  0.92484777  0.08037849  0.80970060    -0.02000
C1368       C  0.93547757  0.12817865  0.80564238     0.04800
N1369       N  0.97136224  0.15864448  0.78612675     0.67300
H1370       H  0.92225016  0.18434703  0.81930531     0.16200
H1371       H  0.88163640  0.01487533  0.83241419     0.15900
N1372       N  0.82794888  0.03801963  0.86269266     0.75000
O1373       O  0.95907089  0.16953579  0.76362268    -0.38400
O1374       O  0.01523012  0.17922356  0.79280438    -0.38400
O1375       O  0.78650730  0.03042129  0.85646031    -0.39100
O1376       O  0.83190300  0.00810197  0.87797439    -0.39100
C1377       C  0.85547687  0.26678113  0.82144261    -0.11400
C1378       C  0.88157863  0.26258192  0.84358712     0.05600
C1379       C  0.92864608  0.30080864  0.84865306    -0.06700
C1380       C  0.94644378  0.34368789  0.83353401    -0.07500
C1381       C  0.91998075  0.34799032  0.81178633    -0.02000
C1382       C  0.87433998  0.30888844  0.80548834     0.04800
N1383       N  0.84600118  0.31213618  0.78361979     0.67300
H1384       H  0.81994287  0.23748734  0.81668061     0.16600
H1385       H  0.98271471  0.37256303  0.83737771     0.15900
N1386       N  0.96108283  0.29425602  0.86604819     0.75000
O1387       O  0.84113720  0.28993255  0.76133128    -0.38400
O1388       O  0.82069445  0.33162708  0.78797074    -0.38400
O1389       O  0.96906119  0.26041151  0.86069894    -0.39100
O1390       O  0.99018298  0.32805261  0.88129708    -0.39100
C1391       C  0.72858841  0.08344003  0.82536289    -0.11400
C1392       C  0.73783683  0.12145314  0.84311805     0.05600
C1393       C  0.70376083  0.13722625  0.84506010    -0.06700
C1394       C  0.66014349  0.11302779  0.83064415    -0.07500
C1395       C  0.65048809  0.07423011  0.81357200    -0.02000
C1396       C  0.68474598  0.05897719  0.81114111     0.04800
N1397       N  0.67406955  0.01697367  0.79559840     0.67300
H1398       H  0.75454689  0.07126454  0.82354659     0.16200
H1399       H  0.63481121  0.12619337  0.83158058     0.15900
N1400       N  0.71511867  0.18071346  0.85900268     0.75000
O1401       O  0.70352260  0.51794076  0.77803754    -0.38400
O1402       O  0.63625403  0.97777130  0.80073368    -0.38400
O1403       O  0.74925313  0.21962028  0.84982908    -0.39100
O1404       O  0.68454260  0.18192502  0.87499483    -0.39100
C1405       C  0.83303590  0.66766078  0.34800726     0.46300
H1406       H  0.83320061  0.66809711  0.32502686    -0.02700
C1407       C  0.83224709  0.66593933  0.40183011     0.46400
H1408       H  0.83173558  0.66508772  0.42481850    -0.02700
C1409       C  0.85819357  0.64156633  0.36049970    -0.16400
C1410       C  0.85855209  0.71809334  0.36102072    -0.16200
C1411       C  0.78201817  0.64227106  0.36051280    -0.16500
C1412       C  0.85856659  0.64149138  0.38899696    -0.16500
C1413       C  0.85732410  0.71712559  0.38957069    -0.16100
C1414       C  0.78165064  0.64052264  0.38891960    -0.16400
C1415       C  0.66730457  0.83178904  0.15248834     0.46300
H1416       H  0.66902509  0.83076251  0.17526748    -0.02700
C1417       C  0.66719604  0.83479109  0.09881121     0.46400
H1418       H  0.66737475  0.83628439  0.07591989    -0.02700
C1419       C  0.71773213  0.85641597  0.13970474    -0.16400
C1420       C  0.64012057  0.78211987  0.13897311    -0.16200
C1421       C  0.64301329  0.85920387  0.14114498    -0.16500
C1422       C  0.71808982  0.85769471  0.11135217    -0.16500
C1423       C  0.64024645  0.78329956  0.11052888    -0.16100
C1424       C  0.64316753  0.86110242  0.11254785    -0.16400
Zn1425     Zn  0.53381941  0.96678760  0.48718394     1.49700
Zn1426     Zn  0.93385335  0.96500974  0.48708901     1.49400
Zn1427     Zn  0.00090365  0.00156814  0.04122254     1.49100
Zn1428     Zn  0.53131618  0.56564474  0.48651738     1.49500
O1429       O  0.00006199  0.99968834  0.50059486    -1.83300
O1430       O  0.99044949  0.90704355  0.46498846    -0.73900
O1431       O  0.88771402  0.94175703  0.01885175    -0.73700
O1432       O  0.53033543  0.96309723  0.05664696    -0.73200
O1433       O  0.92118995  0.90724597  0.46450340    -0.73900
O1434       O  0.55816735  0.94483645  0.01915048    -0.73500
O1435       O  0.93297784  0.97228512  0.05630151    -0.74100
O1436       O  0.55519445  0.61415813  0.01722378    -0.73500
O1437       O  0.91751104  0.50737226  0.46385928    -0.74300
O1438       O  0.53995087  0.57005328  0.05539675    -0.73600
O1439       O  0.98590543  0.57689062  0.46310955    -0.74100
O1440       O  0.58929510  0.58020284  0.46355637    -0.74000
O1441       O  0.59087872  0.51175052  0.46369878    -0.73800
C1442       C  0.94650890  0.88826340  0.45775979     0.78000
C1443       C  0.89192150  0.94840130  0.04484332     0.78500
C1444       C  0.55279876  0.94415078  0.04526169     0.77400
C1445       C  0.55782406  0.61082888  0.04333133     0.77800
C1446       C  0.94198977  0.55101058  0.45615558     0.78900
C1447       C  0.60873973  0.55560454  0.45640921     0.78000
Zn1448     Zn  0.56700701  0.53407981  0.23775262     1.49700
Zn1449     Zn  0.49854092  0.00068418  0.29091308     1.49400
Zn1450     Zn  0.96682274  0.53338096  0.23540454     1.49100
Zn1451     Zn  0.96855300  0.93479514  0.23689636     1.49500
O1452       O  0.50013762  0.00078896  0.25033858    -1.83300
O1453       O  0.61272962  0.55458690  0.26989815    -0.73900
O1454       O  0.96382221  0.53457037  0.30450780    -0.73700
O1455       O  0.51063606  0.58813480  0.21014364    -0.73200
O1456       O  0.56574200  0.53509788  0.30715804    -0.73900
O1457       O  0.58147837  0.59224314  0.21519891    -0.73500
O1458       O  0.94625390  0.56182196  0.26630970    -0.74100
O1459       O  0.91250880  0.92046227  0.21240764    -0.73500
O1460       O  0.96398796  0.93269433  0.30603370    -0.74300
O1461       O  0.90773149  0.98707395  0.21356804    -0.73600
O1462       O  0.94142067  0.88749006  0.26829603    -0.74100
O1463       O  0.51477857  0.92187695  0.21532907    -0.74000
O1464       O  0.58201371  0.99253936  0.21360717    -0.73800
C1465       C  0.60726375  0.55345408  0.29601552     0.78000
C1466       C  0.94652833  0.55817221  0.29256135     0.78500
C1467       C  0.55561541  0.60840105  0.20502758     0.77400
C1468       C  0.89152082  0.94386039  0.20567811     0.77800
C1469       C  0.94261153  0.89174150  0.29446159     0.78900
C1470       C  0.55801101  0.94845513  0.20715895     0.78000
C1471       C  0.62832881  0.70171366  0.09927387    -0.11400
C1472       C  0.61974735  0.73960266  0.09257759     0.05600
C1473       C  0.59290081  0.73561913  0.06851355    -0.06700
C1474       C  0.57484118  0.69420863  0.05221401    -0.07500
C1475       C  0.58134303  0.65548373  0.05984972    -0.02000
C1476       C  0.60885778  0.65971848  0.08353322     0.04800
N1477       N  0.61891880  0.62248115  0.09131278     0.67300
H1478       H  0.65111224  0.70492572  0.11661414     0.16200
H1479       H  0.55338084  0.69129743  0.03420906     0.15900
N1480       N  0.58061411  0.77154973  0.06134176     0.75000
O1481       O  0.64681619  0.61451616  0.07662925    -0.38400
O1482       O  0.60539625  0.60220932  0.11462242    -0.38400
O1483       O  0.59004290  0.79002781  0.03743512    -0.39100
O1484       O  0.55264835  0.77804404  0.07683498    -0.39100
C1485       C  0.80958673  0.88155455  0.05430935    -0.11400
C1486       C  0.84777046  0.92656022  0.06188174     0.05600
C1487       C  0.84301958  0.94922354  0.08555195    -0.06700
C1488       C  0.80051827  0.92670980  0.10108738    -0.07500
C1489       C  0.76283120  0.88079003  0.09417445    -0.02000
C1490       C  0.76776415  0.85822594  0.07042589     0.04800
N1491       N  0.73221172  0.81037886  0.06336613     0.67300
H1492       H  0.81304652  0.86337974  0.03637056     0.16200
H1493       H  0.79681622  0.94589778  0.11830651     0.15900
N1494       N  0.88015535  0.49590984  0.09341660     0.75000
O1495       O  0.71218444  0.80212135  0.03998810    -0.38400
O1496       O  0.72838017  0.77581884  0.07786716    -0.38400
O1497       O  0.88125068  0.53264497  0.08305162    -0.39100
O1498       O  0.90683515  0.50038441  0.11372399    -0.39100
C1499       C  0.57382097  0.87448727  0.10217034    -0.11400
C1500       C  0.62052027  0.88367690  0.09566599     0.05600
C1501       C  0.64408822  0.91228005  0.07224627    -0.06700
C1502       C  0.62048474  0.92999974  0.05564376    -0.07500
C1503       C  0.57446331  0.92182704  0.06256895    -0.02000
C1504       C  0.55104693  0.89396551  0.08618071     0.04800
N1505       N  0.00347331  0.88351332  0.09352549     0.67300
H1506       H  0.55449207  0.85131143  0.11948986     0.16200
H1507       H  0.63926889  0.95236678  0.03792501     0.15900
N1508       N  0.69318576  0.92664115  0.06614839     0.75000
O1509       O  0.96848892  0.85742188  0.07802784    -0.38400
O1510       O  0.99561705  0.89550450  0.11693247    -0.38400
O1511       O  0.70484118  0.92053124  0.04219711    -0.39100
O1512       O  0.72563664  0.95338009  0.08285742    -0.39100
C1513       C  0.64657023  0.72846772  0.17327587    -0.11400
C1514       C  0.61708016  0.73779874  0.15595004     0.05600
C1515       C  0.56771914  0.70344865  0.15365769    -0.06700
C1516       C  0.54869901  0.66137984  0.16962650    -0.07500
C1517       C  0.57810982  0.65198244  0.18722119    -0.02000
C1518       C  0.62803311  0.68536931  0.18811476     0.04800
N1519       N  0.66072614  0.67567007  0.20326625     0.67300
H1520       H  0.68483599  0.75389375  0.17423218     0.16200
H1521       H  0.51056817  0.63580205  0.16817028     0.15900
N1522       N  0.53662399  0.71012200  0.13497810     0.75000
O1523       O  0.67466902  0.64857951  0.19289166    -0.38400
O1524       O  0.68265745  0.70110726  0.22386247    -0.38400
O1525       O  0.53327522  0.74766380  0.13592558    -0.39100
O1526       O  0.50997976  0.67693690  0.11864403    -0.39100
C1527       C  0.79195183  0.85819109  0.15709636    -0.11400
C1528       C  0.76144472  0.87784749  0.15718251     0.05600
C1529       C  0.77314862  0.91830451  0.17357739    -0.06700
C1530       C  0.81561538  0.93919160  0.18903999    -0.07500
C1531       C  0.84685237  0.92016932  0.18883788    -0.02000
C1532       C  0.83419569  0.87863475  0.17288507     0.04800
N1533       N  0.86397868  0.85703523  0.17215615     0.67300
H1534       H  0.78292342  0.82685801  0.14464843     0.16200
H1535       H  0.82422081  0.97071210  0.20118941     0.15900
N1536       N  0.74357204  0.94016609  0.17359533     0.75000
O1537       O  0.85423228  0.82155886  0.18766872    -0.38400
O1538       O  0.89471170  0.86814438  0.15308918    -0.38400
O1539       O  0.72368728  0.94189974  0.19576610    -0.39100
O1540       O  0.74493766  0.96547415  0.15316273    -0.39100
C1541       C  0.57231489  0.88105513  0.19750803    -0.11400
C1542       C  0.58111220  0.92707241  0.19050687     0.05600
C1543       C  0.61301724  0.95213313  0.16861349    -0.06700
C1544       C  0.63411922  0.93006977  0.15363301    -0.07500
C1545       C  0.62359907  0.88285650  0.15970843    -0.02000
C1546       C  0.59376226  0.85907141  0.18285616     0.04800
N1547       N  0.58442053  0.81281319  0.19216330     0.67300
H1548       H  0.54914392  0.86216810  0.21494018     0.16200
H1549       H  0.65789538  0.94961290  0.13657832     0.15900
N1550       N  0.62222655  0.99883752  0.16033792     0.75000
O1551       O  0.54234650  0.77780196  0.18965092    -0.38400
O1552       O  0.61063004  0.81087480  0.21108445    -0.38400
O1553       O  0.66437601  0.53420415  0.16194215    -0.39100
O1554       O  0.59006570  0.50356092  0.14802543    -0.39100
C1555       C  0.85151236  0.58245538  0.42496763    -0.11400
C1556       C  0.88085519  0.61938472  0.40647677     0.05600
C1557       C  0.93033884  0.63422555  0.40509912    -0.06700
C1558       C  0.94908492  0.61086156  0.42107367    -0.07500
C1559       C  0.91950747  0.57266578  0.43874928    -0.02000
C1560       C  0.87007472  0.55820780  0.44049597     0.04800
N1561       N  0.83831706  0.51962193  0.45825476     0.67300
H1562       H  0.81439767  0.57210223  0.42705650     0.16200
H1563       H  0.98717170  0.62334661  0.41997500     0.15900
N1564       N  0.96329057  0.67633489  0.39022058     0.75000
O1565       O  0.82619655  0.02853484  0.48129884    -0.38400
O1566       O  0.81665923  0.47730780  0.44911325    -0.38400
O1567       O  0.98230315  0.71568681  0.40296170    -0.39100
O1568       O  0.98500363  0.67214780  0.36955921    -0.39100
C1569       C  0.88757522  0.83704165  0.42219502    -0.11400
C1570       C  0.92403532  0.84393372  0.44082876     0.05600
C1571       C  0.93707615  0.80791464  0.44323564    -0.06700
C1572       C  0.91383760  0.76635912  0.42699972    -0.07500
C1573       C  0.87849558  0.76036287  0.40768310    -0.02000
C1574       C  0.86478580  0.79590596  0.40579894     0.04800
N1575       N  0.82536629  0.78938430  0.38897613     0.67300
H1576       H  0.87627962  0.86372120  0.42043524     0.16200
H1577       H  0.92408729  0.73899332  0.42913728     0.15900
N1578       N  0.47305207  0.81244082  0.46244606     0.75000
O1579       O  0.78332820  0.76415182  0.39843973    -0.38400
O1580       O  0.83255744  0.81951836  0.37005740    -0.38400
O1581       O  0.46108745  0.79670154  0.48682366    -0.39100
O1582       O  0.51522042  0.82577811  0.45405452    -0.39100
C1583       C  0.72760331  0.64718259  0.42324229    -0.11400
C1584       C  0.73728721  0.61778837  0.40620705     0.05600
C1585       C  0.70473535  0.56787875  0.40615662    -0.06700
C1586       C  0.66326028  0.54870199  0.42257688    -0.07500
C1587       C  0.65297327  0.57813324  0.43920026    -0.02000
C1588       C  0.68555914  0.62808821  0.43929730     0.04800
N1589       N  0.67712729  0.65985577  0.45596596     0.67300
H1590       H  0.75272104  0.68523172  0.42399962     0.16200
H1591       H  0.63906470  0.51026979  0.42239700     0.15900
N1592       N  0.71450175  0.53533034  0.39133333     0.75000
O1593       O  0.68883145  0.66522838  0.48116004    -0.38400
O1594       O  0.66369232  0.68689183  0.44476860    -0.38400
O1595       O  0.68686215  0.51178295  0.37178188    -0.39100
O1596       O  0.73722829  0.51797997  0.40367229    -0.39100
C1597       C  0.91275854  0.64711014  0.32208330    -0.11400
C1598       C  0.87952889  0.61907172  0.34267742     0.05600
C1599       C  0.86772911  0.57058958  0.34594653    -0.06700
C1600       C  0.89146019  0.55227407  0.33005911    -0.07500
C1601       C  0.92486254  0.58037774  0.30974224    -0.02000
C1602       C  0.93543622  0.62815401  0.30565056     0.04800
N1603       N  0.97125022  0.65859081  0.28609322     0.67300
H1604       H  0.92217532  0.68431293  0.31928684     0.16200
H1605       H  0.88175482  0.51492013  0.33251591     0.15900
N1606       N  0.82806819  0.53806599  0.36279783     0.75000
O1607       O  0.95888542  0.66958763  0.26364934    -0.38400
O1608       O  0.01515497  0.67903236  0.29268018    -0.38400
O1609       O  0.78662356  0.53053716  0.35663776    -0.39100
O1610       O  0.83203334  0.50812306  0.37805051    -0.39100
C1611       C  0.85549649  0.76673592  0.32140461    -0.11400
C1612       C  0.88157389  0.76257471  0.34357564     0.05600
C1613       C  0.92862200  0.80082668  0.34865580    -0.06700
C1614       C  0.94641009  0.84369755  0.33353006    -0.07500
C1615       C  0.91996651  0.84796651  0.31175947    -0.02000
C1616       C  0.87435627  0.80883313  0.30544129     0.04800
N1617       N  0.84604377  0.81203482  0.28354094     0.67300
H1618       H  0.81998056  0.73742186  0.31662981     0.16600
H1619       H  0.98266343  0.87259521  0.33738862     0.15900
N1620       N  0.96105386  0.79431258  0.36607757     0.75000
O1621       O  0.84113451  0.78971380  0.26129319    -0.38400
O1622       O  0.82080916  0.83162427  0.28782672    -0.38400
O1623       O  0.96903455  0.76045605  0.36077014    -0.39100
O1624       O  0.99013902  0.82813633  0.38131657    -0.39100
C1625       C  0.72859404  0.58340059  0.32537826    -0.11400
C1626       C  0.73784466  0.62142974  0.34312093     0.05600
C1627       C  0.70377646  0.63721481  0.34504701    -0.06700
C1628       C  0.66016095  0.61301036  0.33063076    -0.07500
C1629       C  0.65050413  0.57420252  0.31356767    -0.02000
C1630       C  0.68475789  0.55894078  0.31114888     0.04800
N1631       N  0.67408649  0.51693657  0.29560831     0.67300
H1632       H  0.75454448  0.57121028  0.32357899     0.16200
H1633       H  0.63483343  0.62618280  0.33155634     0.15900
N1634       N  0.71514387  0.68072067  0.35897105     0.75000
O1635       O  0.70346534  0.01782892  0.27809862    -0.38400
O1636       O  0.63626214  0.47773762  0.30073534    -0.38400
O1637       O  0.74933029  0.71960546  0.34981150    -0.39100
O1638       O  0.68454970  0.68197751  0.37492732    -0.39100
C1639       C  0.83302456  0.66765398  0.84798566     0.46300
H1640       H  0.83316338  0.66810543  0.82500522    -0.02700
C1641       C  0.83229972  0.66590536  0.90180852     0.46400
H1642       H  0.83181531  0.66504267  0.92479691    -0.02700
C1643       C  0.85818857  0.64154465  0.86044906    -0.16400
C1644       C  0.85856277  0.71807766  0.86100940    -0.16200
C1645       C  0.78202073  0.64226440  0.86051070    -0.16500
C1646       C  0.85859625  0.64145631  0.88894626    -0.16500
C1647       C  0.85736933  0.71709810  0.88955925    -0.16100
C1648       C  0.78168718  0.64049929  0.88891728    -0.16400
C1649       C  0.66731251  0.83182437  0.65247352     0.46300
H1650       H  0.66903281  0.83080198  0.67525368    -0.02700
C1651       C  0.66719472  0.83482178  0.59879591     0.46400
H1652       H  0.66736308  0.83631048  0.57590460    -0.02700
C1653       C  0.71773636  0.85644308  0.63968617    -0.16400
C1654       C  0.64012167  0.78215426  0.63895936    -0.16200
C1655       C  0.64302708  0.85924475  0.64113238    -0.16500
C1656       C  0.71809187  0.85771558  0.61133295    -0.16500
C1657       C  0.64023808  0.78333228  0.61051494    -0.16100
C1658       C  0.64317952  0.86114389  0.61253592    -0.16400
Zn1659     Zn  0.53380028  0.96678701  0.98719718     1.49700
Zn1660     Zn  0.93381709  0.96497943  0.98709820     1.49400
Zn1661     Zn  0.00090947  0.00154460  0.54121205     1.49100
Zn1662     Zn  0.53137914  0.56564507  0.98652568     1.49500
O1663       O  0.00003018  0.99968029  0.00060383    -1.83300
O1664       O  0.99043520  0.90701937  0.96500777    -0.73900
O1665       O  0.88772571  0.94175905  0.51882960    -0.73700
O1666       O  0.53034387  0.96313168  0.55663289    -0.73200
O1667       O  0.92116223  0.90719381  0.96452237    -0.73900
O1668       O  0.55817268  0.94484894  0.51914347    -0.73500
O1669       O  0.93298186  0.97225322  0.55628383    -0.74100
O1670       O  0.55513191  0.61417875  0.51720863    -0.73500
O1671       O  0.91755176  0.50733953  0.96380334    -0.74300
O1672       O  0.53994002  0.57008723  0.55538348    -0.73600
O1673       O  0.98593121  0.57687359  0.96305414    -0.74100
O1674       O  0.58936406  0.58019410  0.96357169    -0.74000
O1675       O  0.59090237  0.51171943  0.96369478    -0.73800
C1676       C  0.94649253  0.88822139  0.95777925     0.78000
C1677       C  0.89192752  0.94838223  0.54482230     0.78500
C1678       C  0.55280833  0.94418184  0.54525391     0.77400
C1679       C  0.55778706  0.61085923  0.54331528     0.77800
C1680       C  0.94202512  0.55097083  0.95608783     0.78900
C1681       C  0.60878852  0.55558131  0.95641639     0.78000
Zn1682     Zn  0.56702492  0.53413024  0.73774875     1.49700
Zn1683     Zn  0.49851429  0.00066253  0.79092973     1.49400
Zn1684     Zn  0.96689036  0.53338633  0.73536584     1.49100
Zn1685     Zn  0.96852980  0.93476638  0.73691047     1.49500
O1686       O  0.50009567  0.00077531  0.75035450    -1.83300
O1687       O  0.61273019  0.55465535  0.76990621    -0.73900
O1688       O  0.96384784  0.53460703  0.80446310    -0.73700
O1689       O  0.51063324  0.58816724  0.71013444    -0.73200
O1690       O  0.56571811  0.53508820  0.80715926    -0.73900
O1691       O  0.58148028  0.59228856  0.71519427    -0.73500
O1692       O  0.94630544  0.56184529  0.76624930    -0.74100
O1693       O  0.91246954  0.92042509  0.71243253    -0.73500
O1694       O  0.96397124  0.93270225  0.80605197    -0.74300
O1695       O  0.90770235  0.98704090  0.71358273    -0.73600
O1696       O  0.94140608  0.88748260  0.76831925    -0.74100
O1697       O  0.51474265  0.92186280  0.71532896    -0.74000
O1698       O  0.58196618  0.99253080  0.71360195    -0.73800
C1699       C  0.60724797  0.55348942  0.79602364     0.78000
C1700       C  0.94655722  0.55820016  0.79250162     0.78500
C1701       C  0.55561424  0.60844182  0.70502188     0.77400
C1702       C  0.89147977  0.94382084  0.70570169     0.77800
C1703       C  0.94259586  0.89174660  0.79448404     0.78900
C1704       C  0.55797246  0.94844596  0.70715451     0.78000
C1705       C  0.62832506  0.70175545  0.59924776    -0.11400
C1706       C  0.61972028  0.73963338  0.59256480     0.05600
C1707       C  0.59283988  0.73563989  0.56851408    -0.06700
C1708       C  0.57477215  0.69422864  0.55221329    -0.07500
C1709       C  0.58131186  0.65551912  0.55983119    -0.02000
C1710       C  0.60886652  0.65976809  0.58349925     0.04800
N1711       N  0.61899357  0.62256134  0.59124872     0.67300
H1712       H  0.65112923  0.70497862  0.61657978     0.16200
H1713       H  0.55328386  0.69130684  0.53421997     0.15900
N1714       N  0.58054023  0.77156656  0.56135387     0.75000
O1715       O  0.64671152  0.61448959  0.57646550    -0.38400
O1716       O  0.60570663  0.60241035  0.61460398    -0.38400
O1717       O  0.58994327  0.79004198  0.53744658    -0.39100
O1718       O  0.55258295  0.77805558  0.57685732    -0.39100
C1719       C  0.80957630  0.88154802  0.55428136    -0.11400
C1720       C  0.84777461  0.92654278  0.56185879     0.05600
C1721       C  0.84303634  0.94920537  0.58553177    -0.06700
C1722       C  0.80053658  0.92670349  0.60106788    -0.07500
C1723       C  0.76283284  0.88079388  0.59415227    -0.02000
C1724       C  0.76775012  0.85823115  0.57039778     0.04800
N1725       N  0.73217492  0.81039841  0.56332811     0.67300
H1726       H  0.81302395  0.86337694  0.53633977     0.16200
H1727       H  0.79685219  0.94589448  0.61828303     0.15900
N1728       N  0.88009775  0.49593054  0.59339956     0.75000
O1729       O  0.71211516  0.80217959  0.53996082    -0.38400
O1730       O  0.72835954  0.77581395  0.57779815    -0.38400
O1731       O  0.88124403  0.53261480  0.58291881    -0.39100
O1732       O  0.90668825  0.50050746  0.61377238    -0.39100
C1733       C  0.57384752  0.87455336  0.60217139    -0.11400
C1734       C  0.62053766  0.88372518  0.59565825     0.05600
C1735       C  0.64409989  0.91231640  0.57223374    -0.06700
C1736       C  0.62049390  0.93003334  0.55563227    -0.07500
C1737       C  0.57448195  0.92187752  0.56256652    -0.02000
C1738       C  0.55108030  0.89404271  0.58618767     0.04800
N1739       N  0.00344891  0.88345897  0.59349080     0.67300
H1740       H  0.55452161  0.85138861  0.61949511     0.16200
H1741       H  0.63926895  0.95238492  0.53790681     0.15900
N1742       N  0.69319245  0.92666500  0.56612823     0.75000
O1743       O  0.96844866  0.85719123  0.57804822    -0.38400
O1744       O  0.99561308  0.89561272  0.61685363    -0.38400
O1745       O  0.70483848  0.92057133  0.54217081    -0.39100
O1746       O  0.72565154  0.95337970  0.58284005    -0.39100
C1747       C  0.64655505  0.72853180  0.67328868    -0.11400
C1748       C  0.61707483  0.73783395  0.65593766     0.05600
C1749       C  0.56771937  0.70346685  0.65363099    -0.06700
C1750       C  0.54870433  0.66139487  0.66959914    -0.07500
C1751       C  0.57810802  0.65202503  0.68721658    -0.02000
C1752       C  0.62802092  0.68544411  0.68813742     0.04800
N1753       N  0.66070711  0.67580035  0.70333831     0.67300
H1754       H  0.68481361  0.75397888  0.67426359     0.16200
H1755       H  0.51058013  0.63579847  0.66813187     0.15900
N1756       N  0.53661953  0.71014177  0.63495287     0.75000
O1757       O  0.67467246  0.64869002  0.69301793    -0.38400
O1758       O  0.68263537  0.70132277  0.72390838    -0.38400
O1759       O  0.53352357  0.74783225  0.63577149    -0.39100
O1760       O  0.50980333  0.67687638  0.61870867    -0.39100
C1761       C  0.79186200  0.85811366  0.65715140    -0.11400
C1762       C  0.76144469  0.87787248  0.65716484     0.05600
C1763       C  0.77320560  0.91839532  0.67351120    -0.06700
C1764       C  0.81565508  0.93925546  0.68898970    -0.07500
C1765       C  0.84680626  0.92012961  0.68886210    -0.02000
C1766       C  0.83407203  0.87851307  0.67296988     0.04800
N1767       N  0.86371601  0.85675412  0.67235367     0.67300
H1768       H  0.78277297  0.82671482  0.64475184     0.16200
H1769       H  0.82431219  0.97083438  0.70109454     0.15900
N1770       N  0.74369280  0.94032939  0.67347550     0.75000
O1771       O  0.85395398  0.82146940  0.68803589    -0.38400
O1772       O  0.89429000  0.86747772  0.65323372    -0.38400
O1773       O  0.72385521  0.94220260  0.69563279    -0.39100
O1774       O  0.74505220  0.96554209  0.65299406    -0.39100
C1775       C  0.57226281  0.88103792  0.69747929    -0.11400
C1776       C  0.58108395  0.92707222  0.69049914     0.05600
C1777       C  0.61302668  0.95215977  0.66862430    -0.06700
C1778       C  0.63413863  0.93010876  0.65364021    -0.07500
C1779       C  0.62360250  0.88288561  0.65969811    -0.02000
C1780       C  0.59372654  0.85906970  0.68282634     0.04800
N1781       N  0.58435695  0.81279017  0.69210827     0.67300
H1782       H  0.54906157  0.86212532  0.71489602     0.16200
H1783       H  0.65793538  0.94966942  0.63659652     0.15900
N1784       N  0.62227145  0.99888529  0.66037217     0.75000
O1785       O  0.54228966  0.77778484  0.68955404    -0.38400
O1786       O  0.61052905  0.81080360  0.71103638    -0.38400
O1787       O  0.66442573  0.53421578  0.66176829    -0.39100
O1788       O  0.58998008  0.50357832  0.64810592    -0.39100
C1789       C  0.85156074  0.58243932  0.92492136    -0.11400
C1790       C  0.88088854  0.61932573  0.90640291     0.05600
C1791       C  0.93035366  0.63409958  0.90497766    -0.06700
C1792       C  0.94910127  0.61073015  0.92094761    -0.07500
C1793       C  0.91953807  0.57259200  0.93866080    -0.02000
C1794       C  0.87012035  0.55817786  0.94043808     0.04800
N1795       N  0.83837308  0.51962294  0.95821797     0.67300
H1796       H  0.81447775  0.57213861  0.92704340     0.16200
H1797       H  0.98717170  0.62317311  0.91982435     0.15900
N1798       N  0.96330032  0.67617041  0.89006754     0.75000
O1799       O  0.82634787  0.02842156  0.98133752    -0.38400
O1800       O  0.81671428  0.47729212  0.94910132    -0.38400
O1801       O  0.98224962  0.71556648  0.90276119    -0.39100
O1802       O  0.98506756  0.67194094  0.86944683    -0.39100
C1803       C  0.88754276  0.83696655  0.92222538    -0.11400
C1804       C  0.92403466  0.84388988  0.94084330     0.05600
C1805       C  0.93713026  0.80790531  0.94322263    -0.06700
C1806       C  0.91391163  0.76635502  0.92697837    -0.07500
C1807       C  0.87853780  0.76033170  0.90767770    -0.02000
C1808       C  0.86477820  0.79584042  0.90581869     0.04800
N1809       N  0.82534147  0.78929553  0.88900400     0.67300
H1810       H  0.87620611  0.86361703  0.92048347     0.16200
H1811       H  0.92420635  0.73901851  0.92909427     0.15900
N1812       N  0.47301422  0.81245459  0.96248880     0.75000
O1813       O  0.78330709  0.76399303  0.89845752    -0.38400
O1814       O  0.83249499  0.81944945  0.87010448    -0.38400
O1815       O  0.46109687  0.79706726  0.98693016    -0.39100
O1816       O  0.51511039  0.82550062  0.95408078    -0.39100
C1817       C  0.72770249  0.64713856  0.92329273    -0.11400
C1818       C  0.73734427  0.61775619  0.90622159     0.05600
C1819       C  0.70476073  0.56785378  0.90614292    -0.06700
C1820       C  0.66328216  0.54867733  0.92256183    -0.07500
C1821       C  0.65302613  0.57810350  0.93921060    -0.02000
C1822       C  0.68565330  0.62804740  0.93934208     0.04800
N1823       N  0.67725090  0.65980805  0.95603481     0.67300
H1824       H  0.75284776  0.68517703  0.92407601     0.16200
H1825       H  0.63906161  0.51025129  0.92236267     0.15900
N1826       N  0.71450900  0.53530942  0.89130017     0.75000
O1827       O  0.68921463  0.66534713  0.98118811    -0.38400
O1828       O  0.66363320  0.68672478  0.94487270    -0.38400
O1829       O  0.68676709  0.51166105  0.87180777    -0.39100
O1830       O  0.73739188  0.51808014  0.90358670    -0.39100
C1831       C  0.91272927  0.64710461  0.82201245    -0.11400
C1832       C  0.87950051  0.61905445  0.84260473     0.05600
C1833       C  0.86770229  0.57057143  0.84586306    -0.06700
C1834       C  0.89144179  0.55226940  0.82997391    -0.07500
C1835       C  0.92485596  0.58038809  0.80966652    -0.02000
C1836       C  0.93541596  0.62816071  0.80557656     0.04800
N1837       N  0.97123129  0.65860850  0.78602297     0.67300
H1838       H  0.92214214  0.68430721  0.81922202     0.16200
H1839       H  0.88174335  0.51491673  0.83242748     0.15900
N1840       N  0.82804606  0.53803576  0.86271257     0.75000
O1841       O  0.95886184  0.66951490  0.76355076    -0.38400
O1842       O  0.01512739  0.67914919  0.79263619    -0.38400
O1843       O  0.78658437  0.53041782  0.85651634    -0.39100
O1844       O  0.83205033  0.50814129  0.87798855    -0.39100
C1845       C  0.85545227  0.76677077  0.82144005    -0.11400
C1846       C  0.88156772  0.76256726  0.84357497     0.05600
C1847       C  0.92864024  0.80078649  0.84863267    -0.06700
C1848       C  0.94643180  0.84366818  0.83351865    -0.07500
C1849       C  0.91995077  0.84798006  0.81178493    -0.02000
C1850       C  0.87430224  0.80888532  0.80549393     0.04800
N1851       N  0.84594131  0.81215061  0.78364439     0.67300
H1852       H  0.81991692  0.73747761  0.81668155     0.16600
H1853       H  0.98271027  0.87253574  0.83735349     0.15900
N1854       N  0.96109149  0.79421491  0.86600283     0.75000
O1855       O  0.84091999  0.78983518  0.76138110    -0.38400
O1856       O  0.82077527  0.83179452  0.78799397    -0.38400
O1857       O  0.96912161  0.76042324  0.86059520    -0.39100
O1858       O  0.99017315  0.82798148  0.88127487    -0.39100
C1859       C  0.72853143  0.58335537  0.82541215    -0.11400
C1860       C  0.73782796  0.62142347  0.84313396     0.05600
C1861       C  0.70378849  0.63724739  0.84505031    -0.06700
C1862       C  0.66017692  0.61307399  0.83062575    -0.07500
C1863       C  0.65047935  0.57423061  0.81358334    -0.02000
C1864       C  0.68468493  0.55890586  0.81119335     0.04800
N1865       N  0.67394345  0.51684057  0.79569842     0.67300
H1866       H  0.75445295  0.57112948  0.82362011     0.16200
H1867       H  0.63487948  0.62628423  0.83153841     0.15900
N1868       N  0.71516902  0.68074656  0.85898449     0.75000
O1869       O  0.70375474  0.01812672  0.77799565    -0.38400
O1870       O  0.63615410  0.47765662  0.80090832    -0.38400
O1871       O  0.74922330  0.71965639  0.84975676    -0.39100
O1872       O  0.68464052  0.68194582  0.87502239    -0.39100
loop_ 
_geom_bond_atom_site_label_1 
_geom_bond_atom_site_label_2 
_geom_bond_distance 
_geom_bond_site_symmetry_2 
_ccdc_geom_bond_type 
C1            H2   1.111       .  S
C1            C7   1.539       .  S
C1            C6   1.543       .  S
C1            C5   1.540       .  S
C3            H4   1.112       .  S
C3            C9   1.541       .  S
C3            C8   1.539       .  S
C3           C10   1.540       .  S
C5            C8   1.378       .  D
C5          C194   1.491       .  S
C6            C9   1.381       .  D
C6          C208   1.494       .  S
C7           C10   1.374       .  D
C7          C222   1.490       .  S
C8          C152   1.489       .  S
C9          C169   1.494       .  S
C10         C180   1.487       .  S
C11          H12   1.104       .  S
C11          C17   1.532       .  S
C11          C16   1.536       .  S
C11          C15   1.529       .  S
C13          H14   1.107       .  S
C13          C19   1.539       .  S
C13          C18   1.541       .  S
C13          C20   1.547       .  S
C15          C18   1.371       .  D
C15         C124   1.481       .  S
C16          C19   1.376       .  D
C16         C110   1.478       .  S
C17          C20   1.384       .  D
C17         C141   1.497       .  S
C18          C85   1.493       .  S
C19          C68   1.500       .  S
C20          C96   1.492       .  S
Zn21        O961   1.959       .  S
Zn21        O962   2.034   1_455  S
Zn21        O264   2.005       .  S
Zn21        O505   2.019       .  S
Zn22         O25   1.955       .  S
Zn22         O29   2.018       .  S
Zn22        O261   1.996       .  S
Zn22        O501   2.016       .  S
Zn23        O259   1.965       .  S
Zn23         O31   2.025       .  S
Zn23        O964   2.024       .  S
Zn23       O1438   2.039       .  S
Zn24       O1429   1.956   1_545  S
Zn24         O36   2.006       .  S
Zn24        O266   2.014       .  S
Zn24        O971   2.009   1_455  S
O25        Zn957   1.959       .  S
O25        Zn257   1.965       .  S
O25       Zn1428   1.956       .  S
O26        Zn957   2.034       .  S
O26          C38   1.274       .  A
O27        Zn256   1.996   1_554  S
O27          C39   1.272       .  A
O28        Zn959   2.025       .  S
O28          C40   1.274       .  A
O29          C38   1.274       .  A
O30        Zn255   2.004   1_554  S
O30          C40   1.273       .  A
O31          C39   1.275       .  A
O32        Zn258   2.014   1_554  S
O32          C41   1.272       .  A
O33        Zn490   2.015   1_545  S
O33          C42   1.272       .  A
O34       Zn1427   2.039       .  S
O34          C41   1.276       .  A
O35        Zn960   2.009       .  S
O35          C42   1.274       .  A
O36          C43   1.272       .  A
O37        Zn489   2.018   1_545  S
O37          C43   1.275       .  A
C38         C166   1.487       .  S
C39          C82   1.475       .  S
C40          C99   1.475       .  S
C41          C71   1.484       .  S
C42         C155   1.481       .  S
C43         C183   1.482       .  S
Zn44        O516   1.954       .  S
Zn44         O49   2.011       .  S
Zn44         O53   2.001       .  S
Zn44        O528   2.005   1_545  S
Zn45         O48   1.962   1_655  S
Zn45       O1454   2.012       .  S
Zn45        O520   2.028   1_655  S
Zn45        O992   2.025       .  S
Zn46       O1452   1.959       .  S
Zn46         O54   2.027       .  S
Zn46        O987   2.018       .  S
Zn46        O525   2.032   1_545  S
Zn47        O984   1.955       .  S
Zn47         O55   2.003       .  S
Zn47         O58   2.007       .  S
Zn47        O995   2.014       .  S
O48        Zn512   1.953       .  S
O48       Zn1450   1.959   1_455  S
O48        Zn983   1.955   1_455  S
O49          C61   1.273       .  A
O50       Zn1449   2.012       .  S
O50          C62   1.273       .  A
O51        Zn982   2.018   1_455  S
O51          C63   1.274       .  A
O52        Zn513   2.028   1_455  S
O52          C61   1.273       .  A
O53          C63   1.271       .  A
O54          C62   1.274       .  A
O55          C64   1.271       .  A
O56        Zn981   2.025       .  S
O56          C65   1.275       .  A
O57        Zn514   2.032       .  S
O57          C64   1.277       .  A
O58          C65   1.272       .  A
O59        Zn983   2.014   1_455  S
O59          C66   1.274       .  A
O60        Zn512   2.005       .  S
O60          C66   1.271       .  A
C61         C225   1.473       .  S
C62         C197   1.474       .  S
C63         C113   1.484       .  S
C64         C127   1.487       .  S
C65         C211   1.474       .  S
C66         C138   1.474       .  S
C67          C68   1.408       .  A
C67          C72   1.401       .  A
C67          H74   1.082       .  S
C68          C69   1.414       .  A
C69          C70   1.404       .  A
C69          N76   1.430       .  S
C70          C71   1.404       .  A
C70          H75   1.084       .  S
C71          C72   1.410       .  A
C72          N73   1.430       .  S
N73          O77   1.262       .  A
N73          O78   1.262       .  A
N76          O80   1.261       .  A
N76          O79   1.262       .  A
C81          C82   1.403       .  A
C81          C86   1.399       .  A
C81          H88   1.083       .  S
C82          C83   1.407       .  A
C83          C84   1.398       .  A
C83         N558   1.429       .  S
C84          C85   1.407       .  A
C84          H89   1.079       .  S
C85          C86   1.411       .  A
C86          N87   1.429       .  S
N87          O91   1.262       .  A
N87          O92   1.261       .  A
N90         C551   1.429       .  S
N90          O94   1.262   1_565  A
N90          O93   1.262   1_565  A
C95          C96   1.406       .  A
C95         C100   1.401       .  A
C95         H102   1.083       .  S
C96          C97   1.412       .  A
C97          C98   1.398       .  A
C97         N104   1.430       .  S
C98          C99   1.401       .  A
C98         H103   1.084       .  S
C99         C100   1.410       .  A
C100       N1037   1.430       .  S
N101       C1036   1.430       .  S
N101        O105   1.262       .  A
N101        O106   1.262       .  A
N104        O108   1.261       .  A
N104        O107   1.262       .  A
C109        C110   1.399       .  A
C109        C114   1.398       .  A
C109        H116   1.084       .  S
C110        C111   1.413       .  A
C111        C112   1.400       .  A
C111        N118   1.435       .  S
C112        C113   1.406       .  A
C112        H117   1.084       .  S
C113        C114   1.415       .  A
C114        N115   1.430       .  S
N115        O119   1.262       .  A
N115        O120   1.262       .  A
N118        O122   1.262       .  A
N118        O121   1.261       .  A
C123        C124   1.399       .  A
C123        C128   1.402       .  A
C123        H130   1.084       .  S
C124        C125   1.408       .  A
C125        C126   1.399       .  A
C125        N132   1.429       .  S
C126        C127   1.405       .  A
C126        H131   1.084       .  S
C127        C128   1.418       .  A
C128        N129   1.429       .  S
N129        O133   1.262       .  A
N129        O134   1.262       .  A
N132        O136   1.262       .  A
N132        O135   1.262       .  A
C137        C138   1.398       .  A
C137        C142   1.398       .  A
C137        H144   1.084       .  S
C138        C139   1.409       .  A
C139        C140   1.400       .  A
C139        N146   1.430       .  S
C140        C141   1.408       .  A
C140        H145   1.083       .  S
C141        C142   1.419       .  A
C142        N143   1.430       .  S
N143        O147   1.261       .  A
N143        O148   1.262       .  A
N146        O618   1.262       .  A
N146        O617   1.262       .  A
O149        N614   1.262   1_545  A
O150        N614   1.262   1_545  A
C151        C152   1.403       .  A
C151        C156   1.404       .  A
C151        H158   1.066       .  S
C152        C153   1.410       .  A
C153        C154   1.398       .  A
C153        N160   1.425       .  S
C154        C155   1.402       .  A
C154        H159   1.078       .  S
C155        C156   1.412       .  A
C156        N157   1.429       .  S
N157        O629   1.262       .  A
N157        O162   1.262   1_545  A
N160        O164   1.262       .  A
N160        O163   1.261       .  A
O161        N625   1.262       .  A
C165        C166   1.402       .  A
C165        C170   1.400       .  A
C165        H172   1.084       .  S
C166        C167   1.413       .  A
C167        C168   1.406       .  A
C167       N1110   1.429       .  S
C168        C169   1.404       .  A
C168        H173   1.083       .  S
C169        C170   1.412       .  A
C170        N171   1.426       .  S
N171        O175   1.261       .  A
N171        O176   1.262       .  A
N174       C1103   1.429       .  S
N174        O178   1.262   1_655  A
N174        O177   1.262       .  A
C179        C180   1.400       .  A
C179        C184   1.401       .  A
C179        H186   1.079       .  S
C180        C181   1.412       .  A
C181        C182   1.398       .  A
C181        N188   1.426       .  S
C182        C183   1.401       .  A
C182        H187   1.083       .  S
C183        C184   1.414       .  A
C184        N185   1.429       .  S
N185        O189   1.262       .  A
N185        O190   1.262       .  A
N188        O192   1.261       .  A
N188        O191   1.262       .  A
C193        C194   1.404       .  A
C193        C198   1.403       .  A
C193        H200   1.084       .  S
C194        C195   1.414       .  A
C195        C196   1.399       .  A
C195        N202   1.428       .  S
C196        C197   1.398       .  A
C196        H201   1.084       .  S
C197        C198   1.409       .  A
C198        N199   1.428       .  S
N199        O203   1.262       .  A
N199        O204   1.262       .  A
N202        O206   1.263       .  A
N202        O205   1.260       .  A
C207        C208   1.404       .  A
C207        C212   1.401       .  A
C207        H214   1.082       .  S
C208        C209   1.415       .  A
C209        C210   1.401       .  A
C209        N216   1.428       .  S
C210        C211   1.398       .  A
C210        H215   1.084       .  S
C211        C212   1.409       .  A
C212        N213   1.429       .  S
N213        O217   1.262       .  A
N213        O218   1.262       .  A
N216        O220   1.263       .  A
N216        O219   1.260       .  A
C221        C222   1.402       .  A
C221        C226   1.404       .  A
C221        H228   1.082       .  S
C222        C223   1.413       .  A
C223        C224   1.402       .  A
C223        N230   1.429       .  S
C224        C225   1.399       .  A
C224        H229   1.084       .  S
C225        C226   1.408       .  A
C226        N227   1.433       .  S
N227        O699   1.262       .  A
N227        O232   1.263   1_545  A
N230        O234   1.262       .  A
N230        O233   1.261       .  A
O231        N695   1.262       .  A
C235        H236   1.111       .  S
C235        C241   1.539       .  S
C235        C240   1.543       .  S
C235        C239   1.540       .  S
C237        H238   1.112       .  S
C237        C243   1.541       .  S
C237        C242   1.539       .  S
C237        C244   1.540       .  S
C239        C242   1.378       .  D
C239        C428   1.491       .  S
C240        C243   1.381       .  D
C240        C442   1.495       .  S
C241        C244   1.374       .  D
C241        C456   1.490       .  S
C242        C386   1.489       .  S
C243        C403   1.494       .  S
C244        C414   1.487       .  S
C245        H246   1.104       .  S
C245        C251   1.532       .  S
C245        C250   1.536       .  S
C245        C249   1.529       .  S
C247        H248   1.107       .  S
C247        C253   1.539       .  S
C247        C252   1.541       .  S
C247        C254   1.547       .  S
C249        C252   1.371       .  D
C249        C358   1.481       .  S
C250        C253   1.376       .  D
C250        C344   1.478       .  S
C251        C254   1.384       .  D
C251        C375   1.497       .  S
C252        C319   1.493       .  S
C253        C302   1.500       .  S
C254        C330   1.492       .  S
Zn255      O1195   1.958   1_556  S
Zn255      O1196   2.034   1_455  S
Zn255       O739   2.018       .  S
Zn256       O259   1.955   1_556  S
Zn256       O263   2.017       .  S
Zn256       O735   2.015       .  S
Zn257      O1198   2.025       .  S
Zn257       O265   2.025       .  S
Zn257      O1672   2.039       .  S
Zn258      O1663   1.956   1_546  S
Zn258      O1205   2.009   1_455  S
Zn258       O270   2.006       .  S
O259      Zn1191   1.958   1_554  S
O259      Zn1662   1.956   1_554  S
O260      Zn1191   2.034       .  S
O260        C272   1.274       .  A
O261        C273   1.272       .  A
O262      Zn1193   2.025       .  S
O262        C274   1.274       .  A
O263        C272   1.274       .  A
O264        C274   1.273       .  A
O265        C273   1.275       .  A
O266        C275   1.272       .  A
O267       Zn724   2.016   1_545  S
O267        C276   1.272       .  A
O268      Zn1661   2.039       .  S
O268        C275   1.276       .  A
O269      Zn1194   2.009       .  S
O269        C276   1.274       .  A
O270        C277   1.272       .  A
O271       Zn723   2.018   1_545  S
O271        C277   1.275       .  A
C272        C400   1.486       .  S
C273        C316   1.475       .  S
C274        C333   1.475       .  S
C275        C305   1.484       .  S
C276        C389   1.481       .  S
C277        C417   1.482       .  S
Zn278       O750   1.954       .  S
Zn278       O283   2.011       .  S
Zn278       O287   2.001       .  S
Zn278       O762   2.005   1_545  S
Zn279       O282   1.962   1_655  S
Zn279      O1688   2.012       .  S
Zn279       O754   2.028   1_655  S
Zn279      O1226   2.026       .  S
Zn280      O1686   1.959       .  S
Zn280      O1221   2.018       .  S
Zn280       O288   2.027       .  S
Zn280       O759   2.032   1_545  S
Zn281      O1218   1.955       .  S
Zn281       O289   2.003       .  S
Zn281       O292   2.007       .  S
Zn281      O1229   2.014       .  S
O282       Zn746   1.954       .  S
O282      Zn1684   1.959   1_455  S
O282      Zn1217   1.955   1_455  S
O283        C295   1.273       .  A
O284      Zn1683   2.012       .  S
O284        C296   1.273       .  A
O285      Zn1216   2.018   1_455  S
O285        C297   1.274       .  A
O286       Zn747   2.028   1_455  S
O286        C295   1.273       .  A
O287        C297   1.271       .  A
O288        C296   1.274       .  A
O289        C298   1.271       .  A
O290      Zn1215   2.026       .  S
O290        C299   1.275       .  A
O291       Zn748   2.032       .  S
O291        C298   1.277       .  A
O292        C299   1.272       .  A
O293      Zn1217   2.014   1_455  S
O293        C300   1.274       .  A
O294       Zn746   2.005       .  S
O294        C300   1.271       .  A
C295        C459   1.473       .  S
C296        C431   1.474       .  S
C297        C347   1.484       .  S
C298        C361   1.487       .  S
C299        C445   1.474       .  S
C300        C372   1.474       .  S
C301        C302   1.408       .  A
C301        C306   1.401       .  A
C301        H308   1.082       .  S
C302        C303   1.414       .  A
C303        C304   1.404       .  A
C303        N310   1.430       .  S
C304        C305   1.404       .  A
C304        H309   1.084       .  S
C305        C306   1.409       .  A
C306        N307   1.430       .  S
N307        O311   1.262       .  A
N307        O312   1.262       .  A
N310        O314   1.261       .  A
N310        O313   1.262       .  A
C315        C316   1.403       .  A
C315        C320   1.399       .  A
C315        H322   1.084       .  S
C316        C317   1.407       .  A
C317        C318   1.398       .  A
C317        N792   1.429       .  S
C318        C319   1.407       .  A
C318        H323   1.079       .  S
C319        C320   1.411       .  A
C320        N321   1.429       .  S
N321        O325   1.262       .  A
N321        O326   1.261       .  A
N324        C785   1.429       .  S
N324        O328   1.262   1_565  A
N324        O327   1.262   1_565  A
C329        C330   1.406       .  A
C329        C334   1.401       .  A
C329        H336   1.083       .  S
C330        C331   1.412       .  A
C331        C332   1.398       .  A
C331        N338   1.430       .  S
C332        C333   1.401       .  A
C332        H337   1.084       .  S
C333        C334   1.410       .  A
C334       N1271   1.431       .  S
N335       C1270   1.431       .  S
N335        O339   1.262       .  A
N335        O340   1.262       .  A
N338        O342   1.261       .  A
N338        O341   1.262       .  A
C343        C344   1.399       .  A
C343        C348   1.398       .  A
C343        H350   1.084       .  S
C344        C345   1.413       .  A
C345        C346   1.400       .  A
C345        N352   1.434       .  S
C346        C347   1.406       .  A
C346        H351   1.084       .  S
C347        C348   1.415       .  A
C348        N349   1.430       .  S
N349        O353   1.263       .  A
N349        O354   1.262       .  A
N352        O356   1.262       .  A
N352        O355   1.261       .  A
C357        C358   1.399       .  A
C357        C362   1.402       .  A
C357        H364   1.084       .  S
C358        C359   1.408       .  A
C359        C360   1.398       .  A
C359        N366   1.429       .  S
C360        C361   1.405       .  A
C360        H365   1.084       .  S
C361        C362   1.418       .  A
C362        N363   1.429       .  S
N363        O367   1.262       .  A
N363        O368   1.262       .  A
N366        O370   1.262       .  A
N366        O369   1.262       .  A
C371        C372   1.398       .  A
C371        C376   1.398       .  A
C371        H378   1.084       .  S
C372        C373   1.409       .  A
C373        C374   1.400       .  A
C373        N380   1.430       .  S
C374        C375   1.408       .  A
C374        H379   1.083       .  S
C375        C376   1.419       .  A
C376        N377   1.430       .  S
N377        O381   1.261       .  A
N377        O382   1.262       .  A
N380        O852   1.262       .  A
N380        O851   1.262       .  A
O383        N848   1.262   1_545  A
O384        N848   1.262   1_545  A
C385        C386   1.403       .  A
C385        C390   1.404       .  A
C385        H392   1.067       .  S
C386        C387   1.410       .  A
C387        C388   1.398       .  A
C387        N394   1.425       .  S
C388        C389   1.402       .  A
C388        H393   1.078       .  S
C389        C390   1.412       .  A
C390        N391   1.429       .  S
N391        O863   1.262       .  A
N391        O396   1.262   1_545  A
N394        O398   1.262       .  A
N394        O397   1.261       .  A
O395        N859   1.262       .  A
C399        C400   1.402       .  A
C399        C404   1.400       .  A
C399        H406   1.084       .  S
C400        C401   1.413       .  A
C401        C402   1.406       .  A
C401       N1344   1.429       .  S
C402        C403   1.404       .  A
C402        H407   1.083       .  S
C403        C404   1.412       .  A
C404        N405   1.426       .  S
N405        O409   1.261       .  A
N405        O410   1.262       .  A
N408       C1337   1.429       .  S
N408        O412   1.262   1_655  A
N408        O411   1.262       .  A
C413        C414   1.400       .  A
C413        C418   1.401       .  A
C413        H420   1.079       .  S
C414        C415   1.412       .  A
C415        C416   1.398       .  A
C415        N422   1.426       .  S
C416        C417   1.401       .  A
C416        H421   1.083       .  S
C417        C418   1.414       .  A
C418        N419   1.429       .  S
N419        O423   1.262       .  A
N419        O424   1.262       .  A
N422        O426   1.261       .  A
N422        O425   1.262       .  A
C427        C428   1.404       .  A
C427        C432   1.403       .  A
C427        H434   1.084       .  S
C428        C429   1.414       .  A
C429        C430   1.399       .  A
C429        N436   1.428       .  S
C430        C431   1.398       .  A
C430        H435   1.084       .  S
C431        C432   1.409       .  A
C432        N433   1.428       .  S
N433        O437   1.262       .  A
N433        O438   1.262       .  A
N436        O440   1.263       .  A
N436        O439   1.260       .  A
C441        C442   1.404       .  A
C441        C446   1.401       .  A
C441        H448   1.082       .  S
C442        C443   1.415       .  A
C443        C444   1.401       .  A
C443        N450   1.428       .  S
C444        C445   1.398       .  A
C444        H449   1.084       .  S
C445        C446   1.409       .  A
C446        N447   1.429       .  S
N447        O451   1.262       .  A
N447        O452   1.262       .  A
N450        O454   1.263       .  A
N450        O453   1.260       .  A
C455        C456   1.402       .  A
C455        C460   1.404       .  A
C455        H462   1.082       .  S
C456        C457   1.413       .  A
C457        C458   1.402       .  A
C457        N464   1.429       .  S
C458        C459   1.399       .  A
C458        H463   1.084       .  S
C459        C460   1.409       .  A
C460        N461   1.433       .  S
N461        O933   1.262       .  A
N461        O466   1.263   1_545  A
N464        O468   1.262       .  A
N464        O467   1.261       .  A
O465        N929   1.262       .  A
C469        H470   1.111       .  S
C469        C475   1.539       .  S
C469        C474   1.543       .  S
C469        C473   1.540       .  S
C471        H472   1.112       .  S
C471        C477   1.541       .  S
C471        C476   1.539       .  S
C471        C478   1.540       .  S
C473        C476   1.378       .  D
C473        C662   1.491       .  S
C474        C477   1.381       .  D
C474        C676   1.495       .  S
C475        C478   1.374       .  D
C475        C690   1.490       .  S
C476        C620   1.489       .  S
C477        C637   1.494       .  S
C478        C648   1.487       .  S
C479        H480   1.104       .  S
C479        C485   1.532       .  S
C479        C484   1.536       .  S
C479        C483   1.529       .  S
C481        H482   1.107       .  S
C481        C487   1.539       .  S
C481        C486   1.541       .  S
C481        C488   1.547       .  S
C483        C486   1.371       .  D
C483        C592   1.481       .  S
C484        C487   1.376       .  D
C484        C578   1.478       .  S
C485        C488   1.383       .  D
C485        C609   1.497       .  S
C486        C553   1.493       .  S
C487        C536   1.500       .  S
C488        C564   1.492       .  S
Zn489      O1429   1.958       .  S
Zn489      O1430   2.034   1_455  S
Zn489       O732   2.004       .  S
Zn490       O493   1.955       .  S
Zn490       O729   1.996       .  S
Zn490       O497   2.017       .  S
Zn491       O727   1.965   1_545  S
Zn491      O1432   2.025   1_545  S
Zn491       O499   2.025   1_545  S
Zn491       O970   2.039       .  S
Zn492       O961   1.956       .  S
Zn492       O734   2.014       .  S
Zn492      O1439   2.009   1_455  S
Zn492       O504   2.006       .  S
O493      Zn1425   1.958       .  S
O493       Zn725   1.965   1_565  S
O493       Zn960   1.956   1_565  S
O494      Zn1425   2.034       .  S
O494        C506   1.274       .  A
O495       Zn724   1.996   1_554  S
O495        C507   1.272       .  A
O496      Zn1427   2.025   1_565  S
O496        C508   1.274       .  A
O497        C506   1.274       .  A
O498       Zn723   2.005   1_554  S
O498        C508   1.273       .  A
O499        C507   1.275       .  A
O500       Zn726   2.014   1_554  S
O500        C509   1.272       .  A
O501        C510   1.272       .  A
O502       Zn959   2.038       .  S
O502        C509   1.276       .  A
O503      Zn1428   2.009       .  S
O503        C510   1.274       .  A
O504        C511   1.272       .  A
O505        C511   1.275       .  A
C506        C634   1.486       .  S
C507        C550   1.475       .  S
C508        C567   1.475       .  S
C509        C539   1.484       .  S
C510        C623   1.481       .  S
C511        C651   1.482       .  S
Zn512       O517   2.011       .  S
Zn512       O521   2.001       .  S
Zn513       O516   1.962   1_655  S
Zn513       O986   2.012       .  S
Zn513      O1460   2.026   1_545  S
Zn514       O984   1.959       .  S
Zn514      O1455   2.018       .  S
Zn514       O522   2.027       .  S
Zn515      O1452   1.955   1_565  S
Zn515       O523   2.003       .  S
Zn515       O526   2.007       .  S
Zn515      O1463   2.014       .  S
O516       Zn982   1.959   1_455  S
O516      Zn1451   1.955   1_445  S
O517        C529   1.273       .  A
O518       Zn981   2.012       .  S
O518        C530   1.273       .  A
O519      Zn1450   2.018   1_455  S
O519        C531   1.274       .  A
O520        C529   1.273       .  A
O521        C531   1.271       .  A
O522        C530   1.274       .  A
O523        C532   1.271       .  A
O524      Zn1449   2.026   1_565  S
O524        C533   1.275       .  A
O525        C532   1.277       .  A
O526        C533   1.272       .  A
O527      Zn1451   2.014   1_455  S
O527        C534   1.274       .  A
O528        C534   1.271       .  A
C529        C693   1.473       .  S
C530        C665   1.474       .  S
C531        C581   1.484       .  S
C532        C595   1.487       .  S
C533        C679   1.474       .  S
C534        C606   1.474       .  S
C535        C536   1.408       .  A
C535        C540   1.401       .  A
C535        H542   1.082       .  S
C536        C537   1.414       .  A
C537        C538   1.404       .  A
C537        N544   1.430       .  S
C538        C539   1.404       .  A
C538        H543   1.084       .  S
C539        C540   1.409       .  A
C540        N541   1.430       .  S
N541        O545   1.262       .  A
N541        O546   1.262       .  A
N544        O548   1.261       .  A
N544        O547   1.262       .  A
C549        C550   1.403       .  A
C549        C554   1.399       .  A
C549        H556   1.084       .  S
C550        C551   1.407       .  A
C551        C552   1.398       .  A
C552        C553   1.407       .  A
C552        H557   1.079       .  S
C553        C554   1.411       .  A
C554        N555   1.429       .  S
N555        O559   1.262       .  A
N555        O560   1.261       .  A
N558        O562   1.262       .  A
N558        O561   1.262       .  A
C563        C564   1.406       .  A
C563        C568   1.401       .  A
C563        H570   1.083       .  S
C564        C565   1.412       .  A
C565        C566   1.398       .  A
C565        N572   1.430       .  S
C566        C567   1.401       .  A
C566        H571   1.084       .  S
C567        C568   1.410       .  A
C568       N1505   1.431       .  S
N569       C1504   1.431       .  S
N569        O573   1.262       .  A
N569        O574   1.262       .  A
N572        O576   1.261       .  A
N572        O575   1.262       .  A
C577        C578   1.399       .  A
C577        C582   1.397       .  A
C577        H584   1.084       .  S
C578        C579   1.413       .  A
C579        C580   1.400       .  A
C579        N586   1.435       .  S
C580        C581   1.406       .  A
C580        H585   1.084       .  S
C581        C582   1.415       .  A
C582        N583   1.430       .  S
N583        O587   1.262       .  A
N583        O588   1.262       .  A
N586        O590   1.262       .  A
N586        O589   1.261       .  A
C591        C592   1.399       .  A
C591        C596   1.402       .  A
C591        H598   1.084       .  S
C592        C593   1.408       .  A
C593        C594   1.398       .  A
C593        N600   1.429       .  S
C594        C595   1.405       .  A
C594        H599   1.084       .  S
C595        C596   1.418       .  A
C596        N597   1.429       .  S
N597        O601   1.262       .  A
N597        O602   1.262       .  A
N600        O604   1.262       .  A
N600        O603   1.262       .  A
C605        C606   1.398       .  A
C605        C610   1.398       .  A
C605        H612   1.084       .  S
C606        C607   1.409       .  A
C607        C608   1.400       .  A
C607        N614   1.430       .  S
C608        C609   1.408       .  A
C608        H613   1.083       .  S
C609        C610   1.419       .  A
C610        N611   1.430       .  S
N611        O615   1.261       .  A
N611        O616   1.262       .  A
C619        C620   1.403       .  A
C619        C624   1.404       .  A
C619        H626   1.066       .  S
C620        C621   1.410       .  A
C621        C622   1.398       .  A
C621        N628   1.425       .  S
C622        C623   1.402       .  A
C622        H627   1.078       .  S
C623        C624   1.412       .  A
C624        N625   1.429       .  S
N625        O630   1.262       .  A
N628        O632   1.262       .  A
N628        O631   1.261       .  A
C633        C634   1.402       .  A
C633        C638   1.400       .  A
C633        H640   1.084       .  S
C634        C635   1.413       .  A
C635        C636   1.406       .  A
C635       N1578   1.429       .  S
C636        C637   1.404       .  A
C636        H641   1.083       .  S
C637        C638   1.412       .  A
C638        N639   1.426       .  S
N639        O643   1.261       .  A
N639        O644   1.262       .  A
N642       C1571   1.429       .  S
N642        O646   1.262   1_655  A
N642        O645   1.262       .  A
C647        C648   1.400       .  A
C647        C652   1.401       .  A
C647        H654   1.079       .  S
C648        C649   1.412       .  A
C649        C650   1.398       .  A
C649        N656   1.426       .  S
C650        C651   1.401       .  A
C650        H655   1.083       .  S
C651        C652   1.414       .  A
C652        N653   1.429       .  S
N653        O657   1.262       .  A
N653        O658   1.262       .  A
N656        O660   1.261       .  A
N656        O659   1.262       .  A
C661        C662   1.404       .  A
C661        C666   1.403       .  A
C661        H668   1.084       .  S
C662        C663   1.414       .  A
C663        C664   1.399       .  A
C663        N670   1.428       .  S
C664        C665   1.398       .  A
C664        H669   1.084       .  S
C665        C666   1.409       .  A
C666        N667   1.428       .  S
N667        O671   1.262       .  A
N667        O672   1.262       .  A
N670        O674   1.263       .  A
N670        O673   1.260       .  A
C675        C676   1.404       .  A
C675        C680   1.401       .  A
C675        H682   1.082       .  S
C676        C677   1.415       .  A
C677        C678   1.401       .  A
C677        N684   1.428       .  S
C678        C679   1.398       .  A
C678        H683   1.084       .  S
C679        C680   1.409       .  A
C680        N681   1.429       .  S
N681        O685   1.262       .  A
N681        O686   1.262       .  A
N684        O688   1.263       .  A
N684        O687   1.260       .  A
C689        C690   1.402       .  A
C689        C694   1.404       .  A
C689        H696   1.082       .  S
C690        C691   1.413       .  A
C691        C692   1.402       .  A
C691        N698   1.429       .  S
C692        C693   1.399       .  A
C692        H697   1.084       .  S
C693        C694   1.408       .  A
C694        N695   1.433       .  S
N695        O700   1.263       .  A
N698        O702   1.262       .  A
N698        O701   1.261       .  A
C703        H704   1.111       .  S
C703        C709   1.539       .  S
C703        C708   1.543       .  S
C703        C707   1.540       .  S
C705        H706   1.112       .  S
C705        C711   1.541       .  S
C705        C710   1.539       .  S
C705        C712   1.540       .  S
C707        C710   1.378       .  D
C707        C896   1.491       .  S
C708        C711   1.381       .  D
C708        C910   1.495       .  S
C709        C712   1.374       .  D
C709        C924   1.490       .  S
C710        C854   1.489       .  S
C711        C871   1.494       .  S
C712        C882   1.487       .  S
C713        H714   1.104       .  S
C713        C719   1.532       .  S
C713        C718   1.536       .  S
C713        C717   1.529       .  S
C715        H716   1.107       .  S
C715        C721   1.539       .  S
C715        C720   1.541       .  S
C715        C722   1.547       .  S
C717        C720   1.371       .  D
C717        C826   1.481       .  S
C718        C721   1.376       .  D
C718        C812   1.478       .  S
C719        C722   1.383       .  D
C719        C843   1.497       .  S
C720        C787   1.493       .  S
C721        C770   1.500       .  S
C722        C798   1.492       .  S
Zn723      O1663   1.959   1_556  S
Zn723      O1664   2.034   1_455  S
Zn724       O727   1.955   1_556  S
Zn724       O731   2.017       .  S
Zn725      O1666   2.025   1_545  S
Zn725       O733   2.025   1_545  S
Zn725      O1204   2.038       .  S
Zn726      O1195   1.956   1_556  S
Zn726      O1673   2.009   1_455  S
Zn726       O738   2.006       .  S
O727      Zn1659   1.959   1_554  S
O727      Zn1194   1.956   1_564  S
O728      Zn1659   2.034       .  S
O728        C740   1.274       .  A
O729        C741   1.272       .  A
O730      Zn1661   2.025   1_565  S
O730        C742   1.274       .  A
O731        C740   1.274       .  A
O732        C742   1.273       .  A
O733        C741   1.275       .  A
O734        C743   1.272       .  A
O735        C744   1.272       .  A
O736      Zn1193   2.039       .  S
O736        C743   1.276       .  A
O737      Zn1662   2.009       .  S
O737        C744   1.274       .  A
O738        C745   1.272       .  A
O739        C745   1.275       .  A
C740        C868   1.486       .  S
C741        C784   1.475       .  S
C742        C801   1.475       .  S
C743        C773   1.484       .  S
C744        C857   1.481       .  S
C745        C885   1.482       .  S
Zn746       O751   2.011       .  S
Zn746       O755   2.001       .  S
Zn747       O750   1.962   1_655  S
Zn747      O1220   2.012       .  S
Zn747      O1694   2.025   1_545  S
Zn748      O1218   1.959       .  S
Zn748      O1689   2.018       .  S
Zn748       O756   2.027       .  S
Zn749      O1686   1.955   1_565  S
Zn749       O757   2.003       .  S
Zn749       O760   2.007       .  S
Zn749      O1697   2.014       .  S
O750      Zn1216   1.959   1_455  S
O750      Zn1685   1.955   1_445  S
O751        C763   1.273       .  A
O752      Zn1215   2.012       .  S
O752        C764   1.273       .  A
O753      Zn1684   2.018   1_455  S
O753        C765   1.274       .  A
O754        C763   1.273       .  A
O755        C765   1.271       .  A
O756        C764   1.274       .  A
O757        C766   1.271       .  A
O758      Zn1683   2.025   1_565  S
O758        C767   1.275       .  A
O759        C766   1.277       .  A
O760        C767   1.272       .  A
O761      Zn1685   2.014   1_455  S
O761        C768   1.274       .  A
O762        C768   1.271       .  A
C763        C927   1.473       .  S
C764        C899   1.474       .  S
C765        C815   1.484       .  S
C766        C829   1.487       .  S
C767        C913   1.474       .  S
C768        C840   1.474       .  S
C769        C770   1.408       .  A
C769        C774   1.401       .  A
C769        H776   1.082       .  S
C770        C771   1.414       .  A
C771        C772   1.404       .  A
C771        N778   1.430       .  S
C772        C773   1.404       .  A
C772        H777   1.084       .  S
C773        C774   1.409       .  A
C774        N775   1.430       .  S
N775        O779   1.262       .  A
N775        O780   1.262       .  A
N778        O782   1.261       .  A
N778        O781   1.262       .  A
C783        C784   1.403       .  A
C783        C788   1.399       .  A
C783        H790   1.083       .  S
C784        C785   1.407       .  A
C785        C786   1.398       .  A
C786        C787   1.407       .  A
C786        H791   1.079       .  S
C787        C788   1.411       .  A
C788        N789   1.429       .  S
N789        O793   1.262       .  A
N789        O794   1.261       .  A
N792        O796   1.262       .  A
N792        O795   1.262       .  A
C797        C798   1.406       .  A
C797        C802   1.401       .  A
C797        H804   1.083       .  S
C798        C799   1.412       .  A
C799        C800   1.398       .  A
C799        N806   1.430       .  S
C800        C801   1.401       .  A
C800        H805   1.084       .  S
C801        C802   1.410       .  A
C802       N1739   1.430       .  S
N803       C1738   1.430       .  S
N803        O807   1.262       .  A
N803        O808   1.262       .  A
N806        O810   1.261       .  A
N806        O809   1.262       .  A
C811        C812   1.399       .  A
C811        C816   1.398       .  A
C811        H818   1.084       .  S
C812        C813   1.413       .  A
C813        C814   1.400       .  A
C813        N820   1.435       .  S
C814        C815   1.406       .  A
C814        H819   1.084       .  S
C815        C816   1.415       .  A
C816        N817   1.430       .  S
N817        O821   1.262       .  A
N817        O822   1.262       .  A
N820        O824   1.262       .  A
N820        O823   1.261       .  A
C825        C826   1.399       .  A
C825        C830   1.402       .  A
C825        H832   1.084       .  S
C826        C827   1.408       .  A
C827        C828   1.398       .  A
C827        N834   1.429       .  S
C828        C829   1.405       .  A
C828        H833   1.084       .  S
C829        C830   1.418       .  A
C830        N831   1.429       .  S
N831        O835   1.262       .  A
N831        O836   1.262       .  A
N834        O838   1.262       .  A
N834        O837   1.262       .  A
C839        C840   1.398       .  A
C839        C844   1.398       .  A
C839        H846   1.084       .  S
C840        C841   1.409       .  A
C841        C842   1.400       .  A
C841        N848   1.430       .  S
C842        C843   1.408       .  A
C842        H847   1.083       .  S
C843        C844   1.419       .  A
C844        N845   1.430       .  S
N845        O849   1.261       .  A
N845        O850   1.262       .  A
C853        C854   1.403       .  A
C853        C858   1.404       .  A
C853        H860   1.066       .  S
C854        C855   1.410       .  A
C855        C856   1.398       .  A
C855        N862   1.425       .  S
C856        C857   1.402       .  A
C856        H861   1.078       .  S
C857        C858   1.412       .  A
C858        N859   1.429       .  S
N859        O864   1.262       .  A
N862        O866   1.262       .  A
N862        O865   1.261       .  A
C867        C868   1.402       .  A
C867        C872   1.400       .  A
C867        H874   1.084       .  S
C868        C869   1.413       .  A
C869        C870   1.406       .  A
C869       N1812   1.429       .  S
C870        C871   1.404       .  A
C870        H875   1.083       .  S
C871        C872   1.412       .  A
C872        N873   1.426       .  S
N873        O877   1.261       .  A
N873        O878   1.262       .  A
N876       C1805   1.429       .  S
N876        O880   1.262   1_655  A
N876        O879   1.262       .  A
C881        C882   1.400       .  A
C881        C886   1.401       .  A
C881        H888   1.079       .  S
C882        C883   1.412       .  A
C883        C884   1.398       .  A
C883        N890   1.426       .  S
C884        C885   1.401       .  A
C884        H889   1.083       .  S
C885        C886   1.414       .  A
C886        N887   1.429       .  S
N887        O891   1.262       .  A
N887        O892   1.262       .  A
N890        O894   1.261       .  A
N890        O893   1.262       .  A
C895        C896   1.404       .  A
C895        C900   1.403       .  A
C895        H902   1.084       .  S
C896        C897   1.414       .  A
C897        C898   1.399       .  A
C897        N904   1.428       .  S
C898        C899   1.398       .  A
C898        H903   1.084       .  S
C899        C900   1.409       .  A
C900        N901   1.428       .  S
N901        O905   1.262       .  A
N901        O906   1.262       .  A
N904        O908   1.263       .  A
N904        O907   1.260       .  A
C909        C910   1.404       .  A
C909        C914   1.401       .  A
C909        H916   1.082       .  S
C910        C911   1.415       .  A
C911        C912   1.401       .  A
C911        N918   1.428       .  S
C912        C913   1.398       .  A
C912        H917   1.084       .  S
C913        C914   1.409       .  A
C914        N915   1.429       .  S
N915        O919   1.262       .  A
N915        O920   1.262       .  A
N918        O922   1.263       .  A
N918        O921   1.260       .  A
C923        C924   1.402       .  A
C923        C928   1.404       .  A
C923        H930   1.082       .  S
C924        C925   1.413       .  A
C925        C926   1.402       .  A
C925        N932   1.429       .  S
C926        C927   1.399       .  A
C926        H931   1.084       .  S
C927        C928   1.408       .  A
C928        N929   1.433       .  S
N929        O934   1.263       .  A
N932        O936   1.262       .  A
N932        O935   1.261       .  A
C937        H938   1.111       .  S
C937        C943   1.539       .  S
C937        C942   1.543       .  S
C937        C941   1.540       .  S
C939        H940   1.112       .  S
C939        C945   1.541       .  S
C939        C944   1.539       .  S
C939        C946   1.540       .  S
C941        C944   1.378       .  D
C941       C1130   1.491       .  S
C942        C945   1.381       .  D
C942       C1144   1.495       .  S
C943        C946   1.374       .  D
C943       C1158   1.490       .  S
C944       C1088   1.489       .  S
C945       C1105   1.494       .  S
C946       C1116   1.487       .  S
C947        H948   1.104       .  S
C947        C953   1.532       .  S
C947        C952   1.536       .  S
C947        C951   1.529       .  S
C949        H950   1.107       .  S
C949        C955   1.539       .  S
C949        C954   1.541       .  S
C949        C956   1.547       .  S
C951        C954   1.371       .  D
C951       C1060   1.481       .  S
C952        C955   1.376       .  D
C952       C1046   1.478       .  S
C953        C956   1.383       .  D
C953       C1077   1.497       .  S
C954       C1021   1.493       .  S
C955       C1004   1.500       .  S
C956       C1032   1.492       .  S
Zn957      O1200   2.005       .  S
Zn957      O1441   2.018       .  S
Zn958       O961   1.955   1_655  S
Zn958      O1197   1.996       .  S
Zn958       O965   2.017       .  S
Zn958      O1437   2.016       .  S
Zn959      O1195   1.965       .  S
Zn959       O967   2.025   1_455  S
Zn960      O1202   2.014       .  S
Zn960       O972   2.006       .  S
O961      Zn1193   1.965       .  S
O962        C974   1.274       .  A
O963      Zn1192   1.996   1_554  S
O963        C975   1.272       .  A
O964        C976   1.274       .  A
O965        C974   1.274       .  A
O966      Zn1191   2.004   1_554  S
O966        C976   1.273       .  A
O967        C975   1.275       .  A
O968      Zn1194   2.014   1_554  S
O968        C977   1.272       .  A
O969      Zn1426   2.015   1_545  S
O969        C978   1.272       .  A
O970        C977   1.276       .  A
O971        C978   1.274       .  A
O972        C979   1.272       .  A
O973      Zn1425   2.018   1_545  S
O973        C979   1.275       .  A
C974       C1102   1.486       .  S
C975       C1018   1.475       .  S
C976       C1035   1.475       .  S
C977       C1007   1.484       .  S
C978       C1091   1.481       .  S
C979       C1119   1.482       .  S
Zn980      O1452   1.954       .  S
Zn980       O985   2.011       .  S
Zn980       O989   2.001       .  S
Zn980      O1464   2.005   1_545  S
Zn981       O984   1.962       .  S
Zn981      O1456   2.028       .  S
Zn982       O990   2.027       .  S
Zn982      O1461   2.032   1_545  S
Zn983       O991   2.003       .  S
Zn983       O994   2.007       .  S
O984      Zn1448   1.953       .  S
O985        C997   1.273       .  A
O986        C998   1.273       .  A
O987        C999   1.274       .  A
O988      Zn1449   2.028       .  S
O988        C997   1.273       .  A
O989        C999   1.271       .  A
O990        C998   1.274       .  A
O991       C1000   1.271       .  A
O992       C1001   1.275       .  A
O993      Zn1450   2.032       .  S
O993       C1000   1.277       .  A
O994       C1001   1.272       .  A
O995       C1002   1.274       .  A
O996      Zn1448   2.005       .  S
O996       C1002   1.271       .  A
C997       C1161   1.473       .  S
C998       C1133   1.474       .  S
C999       C1049   1.484       .  S
C1000      C1063   1.487       .  S
C1001      C1147   1.474       .  S
C1002      C1074   1.474       .  S
C1003      C1004   1.408       .  A
C1003      C1008   1.401       .  A
C1003      H1010   1.082       .  S
C1004      C1005   1.414       .  A
C1005      C1006   1.404       .  A
C1005      N1012   1.430       .  S
C1006      C1007   1.404       .  A
C1006      H1011   1.084       .  S
C1007      C1008   1.409       .  A
C1008      N1009   1.430       .  S
N1009      O1013   1.262       .  A
N1009      O1014   1.262       .  A
N1012      O1016   1.261       .  A
N1012      O1015   1.262       .  A
C1017      C1018   1.403       .  A
C1017      C1022   1.399       .  A
C1017      H1024   1.084       .  S
C1018      C1019   1.407       .  A
C1019      C1020   1.398       .  A
C1019      N1494   1.429       .  S
C1020      C1021   1.407       .  A
C1020      H1025   1.079       .  S
C1021      C1022   1.411       .  A
C1022      N1023   1.429       .  S
N1023      O1027   1.262       .  A
N1023      O1028   1.261       .  A
N1026      C1487   1.429       .  S
N1026      O1030   1.262   1_565  A
N1026      O1029   1.262   1_565  A
C1031      C1032   1.406       .  A
C1031      C1036   1.401       .  A
C1031      H1038   1.083       .  S
C1032      C1033   1.412       .  A
C1033      C1034   1.398       .  A
C1033      N1040   1.430       .  S
C1034      C1035   1.401       .  A
C1034      H1039   1.084       .  S
C1035      C1036   1.410       .  A
N1037      O1041   1.262   1_455  A
N1037      O1042   1.262   1_455  A
N1040      O1044   1.261       .  A
N1040      O1043   1.262       .  A
C1045      C1046   1.399       .  A
C1045      C1050   1.398       .  A
C1045      H1052   1.084       .  S
C1046      C1047   1.413       .  A
C1047      C1048   1.400       .  A
C1047      N1054   1.435       .  S
C1048      C1049   1.406       .  A
C1048      H1053   1.084       .  S
C1049      C1050   1.415       .  A
C1050      N1051   1.430       .  S
N1051      O1055   1.262       .  A
N1051      O1056   1.262       .  A
N1054      O1058   1.262       .  A
N1054      O1057   1.261       .  A
C1059      C1060   1.399       .  A
C1059      C1064   1.402       .  A
C1059      H1066   1.084       .  S
C1060      C1061   1.408       .  A
C1061      C1062   1.398       .  A
C1061      N1068   1.429       .  S
C1062      C1063   1.405       .  A
C1062      H1067   1.084       .  S
C1063      C1064   1.418       .  A
C1064      N1065   1.429       .  S
N1065      O1069   1.262       .  A
N1065      O1070   1.262       .  A
N1068      O1072   1.262       .  A
N1068      O1071   1.262       .  A
C1073      C1074   1.398       .  A
C1073      C1078   1.398       .  A
C1073      H1080   1.084       .  S
C1074      C1075   1.409       .  A
C1075      C1076   1.400       .  A
C1075      N1082   1.430       .  S
C1076      C1077   1.408       .  A
C1076      H1081   1.083       .  S
C1077      C1078   1.419       .  A
C1078      N1079   1.430       .  S
N1079      O1083   1.261       .  A
N1079      O1084   1.262       .  A
N1082      O1554   1.262       .  A
N1082      O1553   1.262       .  A
O1085      N1550   1.262   1_545  A
O1086      N1550   1.262   1_545  A
C1087      C1088   1.403       .  A
C1087      C1092   1.404       .  A
C1087      H1094   1.066       .  S
C1088      C1089   1.410       .  A
C1089      C1090   1.398       .  A
C1089      N1096   1.425       .  S
C1090      C1091   1.402       .  A
C1090      H1095   1.078       .  S
C1091      C1092   1.412       .  A
C1092      N1093   1.429       .  S
N1093      O1565   1.262       .  A
N1093      O1098   1.262   1_545  A
N1096      O1100   1.262       .  A
N1096      O1099   1.261       .  A
O1097      N1561   1.262       .  A
C1101      C1102   1.402       .  A
C1101      C1106   1.400       .  A
C1101      H1108   1.084       .  S
C1102      C1103   1.413       .  A
C1103      C1104   1.406       .  A
C1104      C1105   1.404       .  A
C1104      H1109   1.083       .  S
C1105      C1106   1.412       .  A
C1106      N1107   1.426       .  S
N1107      O1111   1.261       .  A
N1107      O1112   1.262       .  A
N1110      O1114   1.262       .  A
N1110      O1113   1.262       .  A
C1115      C1116   1.400       .  A
C1115      C1120   1.401       .  A
C1115      H1122   1.079       .  S
C1116      C1117   1.412       .  A
C1117      C1118   1.398       .  A
C1117      N1124   1.426       .  S
C1118      C1119   1.401       .  A
C1118      H1123   1.083       .  S
C1119      C1120   1.414       .  A
C1120      N1121   1.429       .  S
N1121      O1125   1.262       .  A
N1121      O1126   1.262       .  A
N1124      O1128   1.261       .  A
N1124      O1127   1.262       .  A
C1129      C1130   1.404       .  A
C1129      C1134   1.403       .  A
C1129      H1136   1.084       .  S
C1130      C1131   1.414       .  A
C1131      C1132   1.399       .  A
C1131      N1138   1.428       .  S
C1132      C1133   1.398       .  A
C1132      H1137   1.084       .  S
C1133      C1134   1.409       .  A
C1134      N1135   1.428       .  S
N1135      O1139   1.262       .  A
N1135      O1140   1.262   1_655  A
N1138      O1142   1.263       .  A
N1138      O1141   1.260       .  A
C1143      C1144   1.404       .  A
C1143      C1148   1.401       .  A
C1143      H1150   1.082       .  S
C1144      C1145   1.415       .  A
C1145      C1146   1.401       .  A
C1145      N1152   1.428       .  S
C1146      C1147   1.398       .  A
C1146      H1151   1.084       .  S
C1147      C1148   1.409       .  A
C1148      N1149   1.429       .  S
N1149      O1153   1.262       .  A
N1149      O1154   1.262       .  A
N1152      O1156   1.263       .  A
N1152      O1155   1.260       .  A
C1157      C1158   1.402       .  A
C1157      C1162   1.404       .  A
C1157      H1164   1.082       .  S
C1158      C1159   1.413       .  A
C1159      C1160   1.402       .  A
C1159      N1166   1.429       .  S
C1160      C1161   1.399       .  A
C1160      H1165   1.084       .  S
C1161      C1162   1.408       .  A
C1162      N1163   1.433       .  S
N1163      O1635   1.262       .  A
N1163      O1168   1.263   1_545  A
N1166      O1170   1.262       .  A
N1166      O1169   1.261       .  A
O1167      N1631   1.262       .  A
C1171      H1172   1.111       .  S
C1171      C1177   1.539       .  S
C1171      C1176   1.543       .  S
C1171      C1175   1.540       .  S
C1173      H1174   1.112       .  S
C1173      C1179   1.541       .  S
C1173      C1178   1.539       .  S
C1173      C1180   1.540       .  S
C1175      C1178   1.378       .  D
C1175      C1364   1.491       .  S
C1176      C1179   1.381       .  D
C1176      C1378   1.495       .  S
C1177      C1180   1.374       .  D
C1177      C1392   1.490       .  S
C1178      C1322   1.489       .  S
C1179      C1339   1.494       .  S
C1180      C1350   1.487       .  S
C1181      H1182   1.104       .  S
C1181      C1187   1.532       .  S
C1181      C1186   1.536       .  S
C1181      C1185   1.529       .  S
C1183      H1184   1.107       .  S
C1183      C1189   1.539       .  S
C1183      C1188   1.541       .  S
C1183      C1190   1.547       .  S
C1185      C1188   1.371       .  D
C1185      C1294   1.481       .  S
C1186      C1189   1.376       .  D
C1186      C1280   1.478       .  S
C1187      C1190   1.384       .  D
C1187      C1311   1.497       .  S
C1188      C1255   1.493       .  S
C1189      C1238   1.500       .  S
C1190      C1266   1.492       .  S
Zn1191     O1675   2.018       .  S
Zn1192     O1195   1.955   1_656  S
Zn1192     O1199   2.017       .  S
Zn1192     O1671   2.015       .  S
Zn1193     O1201   2.025   1_455  S
Zn1194     O1206   2.006       .  S
O1196      C1208   1.274       .  A
O1197      C1209   1.272       .  A
O1198      C1210   1.274       .  A
O1199      C1208   1.274       .  A
O1200      C1210   1.273       .  A
O1201      C1209   1.275       .  A
O1202      C1211   1.272       .  A
O1203     Zn1660   2.016   1_545  S
O1203      C1212   1.272       .  A
O1204      C1211   1.276       .  A
O1205      C1212   1.274       .  A
O1206      C1213   1.272       .  A
O1207     Zn1659   2.019   1_545  S
O1207      C1213   1.275       .  A
C1208      C1336   1.486       .  S
C1209      C1252   1.475       .  S
C1210      C1269   1.475       .  S
C1211      C1241   1.484       .  S
C1212      C1325   1.481       .  S
C1213      C1353   1.482       .  S
Zn1214     O1686   1.953       .  S
Zn1214     O1219   2.011       .  S
Zn1214     O1223   2.001       .  S
Zn1214     O1698   2.005   1_545  S
Zn1215     O1218   1.962       .  S
Zn1215     O1690   2.028       .  S
Zn1216     O1224   2.027       .  S
Zn1216     O1695   2.032   1_545  S
Zn1217     O1225   2.003       .  S
Zn1217     O1228   2.007       .  S
O1218     Zn1682   1.954       .  S
O1219      C1231   1.273       .  A
O1220      C1232   1.273       .  A
O1221      C1233   1.274       .  A
O1222     Zn1683   2.028       .  S
O1222      C1231   1.273       .  A
O1223      C1233   1.271       .  A
O1224      C1232   1.274       .  A
O1225      C1234   1.271       .  A
O1226      C1235   1.275       .  A
O1227     Zn1684   2.032       .  S
O1227      C1234   1.276       .  A
O1228      C1235   1.272       .  A
O1229      C1236   1.274       .  A
O1230     Zn1682   2.006       .  S
O1230      C1236   1.271       .  A
C1231      C1395   1.473       .  S
C1232      C1367   1.474       .  S
C1233      C1283   1.484       .  S
C1234      C1297   1.487       .  S
C1235      C1381   1.474       .  S
C1236      C1308   1.474       .  S
C1237      C1238   1.408       .  A
C1237      C1242   1.401       .  A
C1237      H1244   1.082       .  S
C1238      C1239   1.414       .  A
C1239      C1240   1.404       .  A
C1239      N1246   1.430       .  S
C1240      C1241   1.404       .  A
C1240      H1245   1.084       .  S
C1241      C1242   1.410       .  A
C1242      N1243   1.430       .  S
N1243      O1247   1.262       .  A
N1243      O1248   1.262       .  A
N1246      O1250   1.261       .  A
N1246      O1249   1.262       .  A
C1251      C1252   1.403       .  A
C1251      C1256   1.399       .  A
C1251      H1258   1.084       .  S
C1252      C1253   1.407       .  A
C1253      C1254   1.398       .  A
C1253      N1728   1.429       .  S
C1254      C1255   1.407       .  A
C1254      H1259   1.079       .  S
C1255      C1256   1.411       .  A
C1256      N1257   1.429       .  S
N1257      O1261   1.262       .  A
N1257      O1262   1.261       .  A
N1260      C1721   1.429       .  S
N1260      O1264   1.262   1_565  A
N1260      O1263   1.262   1_565  A
C1265      C1266   1.406       .  A
C1265      C1270   1.401       .  A
C1265      H1272   1.083       .  S
C1266      C1267   1.412       .  A
C1267      C1268   1.398       .  A
C1267      N1274   1.430       .  S
C1268      C1269   1.401       .  A
C1268      H1273   1.084       .  S
C1269      C1270   1.410       .  A
N1271      O1275   1.262   1_455  A
N1271      O1276   1.262   1_455  A
N1274      O1278   1.261       .  A
N1274      O1277   1.262       .  A
C1279      C1280   1.399       .  A
C1279      C1284   1.397       .  A
C1279      H1286   1.084       .  S
C1280      C1281   1.413       .  A
C1281      C1282   1.400       .  A
C1281      N1288   1.435       .  S
C1282      C1283   1.406       .  A
C1282      H1287   1.084       .  S
C1283      C1284   1.415       .  A
C1284      N1285   1.430       .  S
N1285      O1289   1.262       .  A
N1285      O1290   1.262       .  A
N1288      O1292   1.262       .  A
N1288      O1291   1.261       .  A
C1293      C1294   1.399       .  A
C1293      C1298   1.402       .  A
C1293      H1300   1.084       .  S
C1294      C1295   1.408       .  A
C1295      C1296   1.398       .  A
C1295      N1302   1.429       .  S
C1296      C1297   1.405       .  A
C1296      H1301   1.084       .  S
C1297      C1298   1.418       .  A
C1298      N1299   1.429       .  S
N1299      O1303   1.262       .  A
N1299      O1304   1.262       .  A
N1302      O1306   1.262       .  A
N1302      O1305   1.262       .  A
C1307      C1308   1.398       .  A
C1307      C1312   1.398       .  A
C1307      H1314   1.084       .  S
C1308      C1309   1.409       .  A
C1309      C1310   1.400       .  A
C1309      N1316   1.430       .  S
C1310      C1311   1.408       .  A
C1310      H1315   1.083       .  S
C1311      C1312   1.419       .  A
C1312      N1313   1.430       .  S
N1313      O1317   1.261       .  A
N1313      O1318   1.262       .  A
N1316      O1788   1.262       .  A
N1316      O1787   1.262       .  A
O1319      N1784   1.262   1_545  A
O1320      N1784   1.262   1_545  A
C1321      C1322   1.403       .  A
C1321      C1326   1.404       .  A
C1321      H1328   1.067       .  S
C1322      C1323   1.410       .  A
C1323      C1324   1.398       .  A
C1323      N1330   1.425       .  S
C1324      C1325   1.402       .  A
C1324      H1329   1.078       .  S
C1325      C1326   1.412       .  A
C1326      N1327   1.429       .  S
N1327      O1799   1.262       .  A
N1327      O1332   1.262   1_545  A
N1330      O1334   1.262       .  A
N1330      O1333   1.261       .  A
O1331      N1795   1.262       .  A
C1335      C1336   1.402       .  A
C1335      C1340   1.400       .  A
C1335      H1342   1.084       .  S
C1336      C1337   1.413       .  A
C1337      C1338   1.406       .  A
C1338      C1339   1.404       .  A
C1338      H1343   1.083       .  S
C1339      C1340   1.412       .  A
C1340      N1341   1.426       .  S
N1341      O1345   1.261       .  A
N1341      O1346   1.262       .  A
N1344      O1348   1.262       .  A
N1344      O1347   1.262       .  A
C1349      C1350   1.400       .  A
C1349      C1354   1.401       .  A
C1349      H1356   1.079       .  S
C1350      C1351   1.412       .  A
C1351      C1352   1.398       .  A
C1351      N1358   1.426       .  S
C1352      C1353   1.401       .  A
C1352      H1357   1.083       .  S
C1353      C1354   1.414       .  A
C1354      N1355   1.429       .  S
N1355      O1359   1.262       .  A
N1355      O1360   1.262       .  A
N1358      O1362   1.261       .  A
N1358      O1361   1.262       .  A
C1363      C1364   1.404       .  A
C1363      C1368   1.403       .  A
C1363      H1370   1.084       .  S
C1364      C1365   1.414       .  A
C1365      C1366   1.399       .  A
C1365      N1372   1.428       .  S
C1366      C1367   1.398       .  A
C1366      H1371   1.084       .  S
C1367      C1368   1.409       .  A
C1368      N1369   1.428       .  S
N1369      O1373   1.262       .  A
N1369      O1374   1.262   1_655  A
N1372      O1376   1.263       .  A
N1372      O1375   1.260       .  A
C1377      C1378   1.404       .  A
C1377      C1382   1.401       .  A
C1377      H1384   1.082       .  S
C1378      C1379   1.415       .  A
C1379      C1380   1.401       .  A
C1379      N1386   1.428       .  S
C1380      C1381   1.398       .  A
C1380      H1385   1.084       .  S
C1381      C1382   1.409       .  A
C1382      N1383   1.429       .  S
N1383      O1387   1.262       .  A
N1383      O1388   1.262       .  A
N1386      O1390   1.263       .  A
N1386      O1389   1.260       .  A
C1391      C1392   1.402       .  A
C1391      C1396   1.404       .  A
C1391      H1398   1.082       .  S
C1392      C1393   1.413       .  A
C1393      C1394   1.402       .  A
C1393      N1400   1.429       .  S
C1394      C1395   1.399       .  A
C1394      H1399   1.084       .  S
C1395      C1396   1.409       .  A
C1396      N1397   1.433       .  S
N1397      O1869   1.262       .  A
N1397      O1402   1.263   1_545  A
N1400      O1404   1.262       .  A
N1400      O1403   1.261       .  A
O1401      N1865   1.262       .  A
C1405      H1406   1.111       .  S
C1405      C1411   1.539       .  S
C1405      C1410   1.543       .  S
C1405      C1409   1.540       .  S
C1407      H1408   1.112       .  S
C1407      C1413   1.541       .  S
C1407      C1412   1.539       .  S
C1407      C1414   1.540       .  S
C1409      C1412   1.378       .  D
C1409      C1598   1.491       .  S
C1410      C1413   1.381       .  D
C1410      C1612   1.495       .  S
C1411      C1414   1.374       .  D
C1411      C1626   1.490       .  S
C1412      C1556   1.489       .  S
C1413      C1573   1.494       .  S
C1414      C1584   1.487       .  S
C1415      H1416   1.104       .  S
C1415      C1421   1.532       .  S
C1415      C1420   1.536       .  S
C1415      C1419   1.529       .  S
C1417      H1418   1.107       .  S
C1417      C1423   1.539       .  S
C1417      C1422   1.541       .  S
C1417      C1424   1.547       .  S
C1419      C1422   1.371       .  D
C1419      C1528   1.481       .  S
C1420      C1423   1.376       .  D
C1420      C1514   1.478       .  S
C1421      C1424   1.384       .  D
C1421      C1545   1.497       .  S
C1422      C1489   1.493       .  S
C1423      C1472   1.500       .  S
C1424      C1500   1.492       .  S
Zn1425     O1668   2.004       .  S
Zn1426     O1429   1.955   1_655  S
Zn1426     O1665   1.996       .  S
Zn1426     O1433   2.017       .  S
Zn1427     O1663   1.965   1_545  S
Zn1427     O1435   2.025   1_445  S
Zn1428     O1670   2.014       .  S
Zn1428     O1440   2.006       .  S
O1429     Zn1661   1.965   1_565  S
O1430      C1442   1.274       .  A
O1431     Zn1660   1.996   1_554  S
O1431      C1443   1.272       .  A
O1432      C1444   1.274       .  A
O1433      C1442   1.274       .  A
O1434     Zn1659   2.005   1_554  S
O1434      C1444   1.273       .  A
O1435      C1443   1.275       .  A
O1436     Zn1662   2.014   1_554  S
O1436      C1445   1.272       .  A
O1437      C1446   1.272       .  A
O1438      C1445   1.276       .  A
O1439      C1446   1.274       .  A
O1440      C1447   1.272       .  A
O1441      C1447   1.275       .  A
C1442      C1570   1.486       .  S
C1443      C1486   1.475       .  S
C1444      C1503   1.475       .  S
C1445      C1475   1.484       .  S
C1446      C1559   1.481       .  S
C1447      C1587   1.482       .  S
Zn1448     O1453   2.011       .  S
Zn1448     O1457   2.001       .  S
Zn1449     O1452   1.962       .  S
Zn1450     O1458   2.027       .  S
Zn1451     O1459   2.003       .  S
Zn1451     O1462   2.007       .  S
O1453      C1465   1.273       .  A
O1454      C1466   1.273       .  A
O1455      C1467   1.274       .  A
O1456      C1465   1.273       .  A
O1457      C1467   1.271       .  A
O1458      C1466   1.274       .  A
O1459      C1468   1.271       .  A
O1460      C1469   1.275       .  A
O1461      C1468   1.277       .  A
O1462      C1469   1.272       .  A
O1463      C1470   1.274       .  A
O1464      C1470   1.271       .  A
C1465      C1629   1.473       .  S
C1466      C1601   1.474       .  S
C1467      C1517   1.484       .  S
C1468      C1531   1.487       .  S
C1469      C1615   1.474       .  S
C1470      C1542   1.474       .  S
C1471      C1472   1.408       .  A
C1471      C1476   1.401       .  A
C1471      H1478   1.082       .  S
C1472      C1473   1.414       .  A
C1473      C1474   1.404       .  A
C1473      N1480   1.430       .  S
C1474      C1475   1.404       .  A
C1474      H1479   1.084       .  S
C1475      C1476   1.409       .  A
C1476      N1477   1.430       .  S
N1477      O1481   1.262       .  A
N1477      O1482   1.262       .  A
N1480      O1484   1.261       .  A
N1480      O1483   1.262       .  A
C1485      C1486   1.403       .  A
C1485      C1490   1.399       .  A
C1485      H1492   1.084       .  S
C1486      C1487   1.407       .  A
C1487      C1488   1.398       .  A
C1488      C1489   1.407       .  A
C1488      H1493   1.079       .  S
C1489      C1490   1.411       .  A
C1490      N1491   1.429       .  S
N1491      O1495   1.262       .  A
N1491      O1496   1.261       .  A
N1494      O1498   1.262       .  A
N1494      O1497   1.262       .  A
C1499      C1500   1.406       .  A
C1499      C1504   1.401       .  A
C1499      H1506   1.083       .  S
C1500      C1501   1.412       .  A
C1501      C1502   1.398       .  A
C1501      N1508   1.430       .  S
C1502      C1503   1.401       .  A
C1502      H1507   1.084       .  S
C1503      C1504   1.410       .  A
N1505      O1509   1.262   1_455  A
N1505      O1510   1.262   1_455  A
N1508      O1512   1.261       .  A
N1508      O1511   1.262       .  A
C1513      C1514   1.399       .  A
C1513      C1518   1.398       .  A
C1513      H1520   1.084       .  S
C1514      C1515   1.413       .  A
C1515      C1516   1.400       .  A
C1515      N1522   1.434       .  S
C1516      C1517   1.406       .  A
C1516      H1521   1.084       .  S
C1517      C1518   1.415       .  A
C1518      N1519   1.430       .  S
N1519      O1523   1.262       .  A
N1519      O1524   1.262       .  A
N1522      O1526   1.262       .  A
N1522      O1525   1.261       .  A
C1527      C1528   1.399       .  A
C1527      C1532   1.402       .  A
C1527      H1534   1.084       .  S
C1528      C1529   1.408       .  A
C1529      C1530   1.398       .  A
C1529      N1536   1.429       .  S
C1530      C1531   1.405       .  A
C1530      H1535   1.084       .  S
C1531      C1532   1.418       .  A
C1532      N1533   1.429       .  S
N1533      O1537   1.262       .  A
N1533      O1538   1.262       .  A
N1536      O1540   1.262       .  A
N1536      O1539   1.262       .  A
C1541      C1542   1.398       .  A
C1541      C1546   1.398       .  A
C1541      H1548   1.084       .  S
C1542      C1543   1.409       .  A
C1543      C1544   1.400       .  A
C1543      N1550   1.430       .  S
C1544      C1545   1.408       .  A
C1544      H1549   1.083       .  S
C1545      C1546   1.419       .  A
C1546      N1547   1.430       .  S
N1547      O1551   1.261       .  A
N1547      O1552   1.262       .  A
C1555      C1556   1.403       .  A
C1555      C1560   1.404       .  A
C1555      H1562   1.067       .  S
C1556      C1557   1.410       .  A
C1557      C1558   1.398       .  A
C1557      N1564   1.425       .  S
C1558      C1559   1.402       .  A
C1558      H1563   1.078       .  S
C1559      C1560   1.412       .  A
C1560      N1561   1.429       .  S
N1561      O1566   1.262       .  A
N1564      O1568   1.262       .  A
N1564      O1567   1.261       .  A
C1569      C1570   1.402       .  A
C1569      C1574   1.400       .  A
C1569      H1576   1.084       .  S
C1570      C1571   1.413       .  A
C1571      C1572   1.406       .  A
C1572      C1573   1.404       .  A
C1572      H1577   1.083       .  S
C1573      C1574   1.412       .  A
C1574      N1575   1.426       .  S
N1575      O1579   1.261       .  A
N1575      O1580   1.262       .  A
N1578      O1582   1.262       .  A
N1578      O1581   1.262       .  A
C1583      C1584   1.400       .  A
C1583      C1588   1.401       .  A
C1583      H1590   1.079       .  S
C1584      C1585   1.412       .  A
C1585      C1586   1.398       .  A
C1585      N1592   1.426       .  S
C1586      C1587   1.401       .  A
C1586      H1591   1.083       .  S
C1587      C1588   1.414       .  A
C1588      N1589   1.429       .  S
N1589      O1593   1.262       .  A
N1589      O1594   1.262       .  A
N1592      O1596   1.261       .  A
N1592      O1595   1.262       .  A
C1597      C1598   1.404       .  A
C1597      C1602   1.403       .  A
C1597      H1604   1.084       .  S
C1598      C1599   1.414       .  A
C1599      C1600   1.399       .  A
C1599      N1606   1.428       .  S
C1600      C1601   1.398       .  A
C1600      H1605   1.084       .  S
C1601      C1602   1.409       .  A
C1602      N1603   1.428       .  S
N1603      O1607   1.262       .  A
N1603      O1608   1.262   1_655  A
N1606      O1610   1.263       .  A
N1606      O1609   1.260       .  A
C1611      C1612   1.404       .  A
C1611      C1616   1.401       .  A
C1611      H1618   1.082       .  S
C1612      C1613   1.415       .  A
C1613      C1614   1.401       .  A
C1613      N1620   1.428       .  S
C1614      C1615   1.398       .  A
C1614      H1619   1.084       .  S
C1615      C1616   1.409       .  A
C1616      N1617   1.429       .  S
N1617      O1621   1.262       .  A
N1617      O1622   1.262       .  A
N1620      O1624   1.263       .  A
N1620      O1623   1.260       .  A
C1625      C1626   1.402       .  A
C1625      C1630   1.404       .  A
C1625      H1632   1.082       .  S
C1626      C1627   1.413       .  A
C1627      C1628   1.402       .  A
C1627      N1634   1.429       .  S
C1628      C1629   1.399       .  A
C1628      H1633   1.084       .  S
C1629      C1630   1.409       .  A
C1630      N1631   1.433       .  S
N1631      O1636   1.263       .  A
N1634      O1638   1.262       .  A
N1634      O1637   1.261       .  A
C1639      H1640   1.111       .  S
C1639      C1645   1.539       .  S
C1639      C1644   1.543       .  S
C1639      C1643   1.540       .  S
C1641      H1642   1.112       .  S
C1641      C1647   1.541       .  S
C1641      C1646   1.539       .  S
C1641      C1648   1.540       .  S
C1643      C1646   1.378       .  D
C1643      C1832   1.491       .  S
C1644      C1647   1.381       .  D
C1644      C1846   1.494       .  S
C1645      C1648   1.374       .  D
C1645      C1860   1.490       .  S
C1646      C1790   1.489       .  S
C1647      C1807   1.494       .  S
C1648      C1818   1.487       .  S
C1649      H1650   1.104       .  S
C1649      C1655   1.532       .  S
C1649      C1654   1.536       .  S
C1649      C1653   1.529       .  S
C1651      H1652   1.107       .  S
C1651      C1657   1.539       .  S
C1651      C1656   1.541       .  S
C1651      C1658   1.547       .  S
C1653      C1656   1.371       .  D
C1653      C1762   1.481       .  S
C1654      C1657   1.376       .  D
C1654      C1748   1.478       .  S
C1655      C1658   1.384       .  D
C1655      C1779   1.497       .  S
C1656      C1723   1.493       .  S
C1657      C1706   1.500       .  S
C1658      C1734   1.492       .  S
Zn1660     O1663   1.955   1_656  S
Zn1660     O1667   2.018       .  S
Zn1661     O1669   2.025   1_445  S
Zn1662     O1674   2.006       .  S
O1664      C1676   1.274       .  A
O1665      C1677   1.272       .  A
O1666      C1678   1.274       .  A
O1667      C1676   1.274       .  A
O1668      C1678   1.273       .  A
O1669      C1677   1.275       .  A
O1670      C1679   1.272       .  A
O1671      C1680   1.272       .  A
O1672      C1679   1.276       .  A
O1673      C1680   1.274       .  A
O1674      C1681   1.272       .  A
O1675      C1681   1.275       .  A
C1676      C1804   1.487       .  S
C1677      C1720   1.475       .  S
C1678      C1737   1.475       .  S
C1679      C1709   1.484       .  S
C1680      C1793   1.481       .  S
C1681      C1821   1.482       .  S
Zn1682     O1687   2.011       .  S
Zn1682     O1691   2.001       .  S
Zn1683     O1686   1.962       .  S
Zn1684     O1692   2.027       .  S
Zn1685     O1693   2.003       .  S
Zn1685     O1696   2.007       .  S
O1687      C1699   1.273       .  A
O1688      C1700   1.273       .  A
O1689      C1701   1.274       .  A
O1690      C1699   1.273       .  A
O1691      C1701   1.271       .  A
O1692      C1700   1.274       .  A
O1693      C1702   1.271       .  A
O1694      C1703   1.275       .  A
O1695      C1702   1.277       .  A
O1696      C1703   1.272       .  A
O1697      C1704   1.274       .  A
O1698      C1704   1.271       .  A
C1699      C1863   1.473       .  S
C1700      C1835   1.474       .  S
C1701      C1751   1.484       .  S
C1702      C1765   1.487       .  S
C1703      C1849   1.474       .  S
C1704      C1776   1.474       .  S
C1705      C1706   1.408       .  A
C1705      C1710   1.401       .  A
C1705      H1712   1.082       .  S
C1706      C1707   1.414       .  A
C1707      C1708   1.404       .  A
C1707      N1714   1.430       .  S
C1708      C1709   1.404       .  A
C1708      H1713   1.084       .  S
C1709      C1710   1.410       .  A
C1710      N1711   1.430       .  S
N1711      O1715   1.262       .  A
N1711      O1716   1.262       .  A
N1714      O1718   1.261       .  A
N1714      O1717   1.262       .  A
C1719      C1720   1.403       .  A
C1719      C1724   1.399       .  A
C1719      H1726   1.083       .  S
C1720      C1721   1.407       .  A
C1721      C1722   1.398       .  A
C1722      C1723   1.407       .  A
C1722      H1727   1.079       .  S
C1723      C1724   1.411       .  A
C1724      N1725   1.429       .  S
N1725      O1729   1.262       .  A
N1725      O1730   1.261       .  A
N1728      O1732   1.262       .  A
N1728      O1731   1.262       .  A
C1733      C1734   1.406       .  A
C1733      C1738   1.401       .  A
C1733      H1740   1.083       .  S
C1734      C1735   1.412       .  A
C1735      C1736   1.398       .  A
C1735      N1742   1.430       .  S
C1736      C1737   1.401       .  A
C1736      H1741   1.084       .  S
C1737      C1738   1.410       .  A
N1739      O1743   1.262   1_455  A
N1739      O1744   1.262   1_455  A
N1742      O1746   1.261       .  A
N1742      O1745   1.262       .  A
C1747      C1748   1.399       .  A
C1747      C1752   1.398       .  A
C1747      H1754   1.084       .  S
C1748      C1749   1.413       .  A
C1749      C1750   1.400       .  A
C1749      N1756   1.435       .  S
C1750      C1751   1.406       .  A
C1750      H1755   1.084       .  S
C1751      C1752   1.415       .  A
C1752      N1753   1.430       .  S
N1753      O1757   1.262       .  A
N1753      O1758   1.262       .  A
N1756      O1760   1.262       .  A
N1756      O1759   1.261       .  A
C1761      C1762   1.399       .  A
C1761      C1766   1.402       .  A
C1761      H1768   1.084       .  S
C1762      C1763   1.408       .  A
C1763      C1764   1.399       .  A
C1763      N1770   1.429       .  S
C1764      C1765   1.405       .  A
C1764      H1769   1.084       .  S
C1765      C1766   1.418       .  A
C1766      N1767   1.429       .  S
N1767      O1771   1.262       .  A
N1767      O1772   1.262       .  A
N1770      O1774   1.262       .  A
N1770      O1773   1.262       .  A
C1775      C1776   1.398       .  A
C1775      C1780   1.398       .  A
C1775      H1782   1.084       .  S
C1776      C1777   1.409       .  A
C1777      C1778   1.400       .  A
C1777      N1784   1.430       .  S
C1778      C1779   1.408       .  A
C1778      H1783   1.083       .  S
C1779      C1780   1.419       .  A
C1780      N1781   1.430       .  S
N1781      O1785   1.261       .  A
N1781      O1786   1.262       .  A
C1789      C1790   1.403       .  A
C1789      C1794   1.404       .  A
C1789      H1796   1.066       .  S
C1790      C1791   1.410       .  A
C1791      C1792   1.398       .  A
C1791      N1798   1.425       .  S
C1792      C1793   1.402       .  A
C1792      H1797   1.078       .  S
C1793      C1794   1.412       .  A
C1794      N1795   1.429       .  S
N1795      O1800   1.262       .  A
N1798      O1802   1.262       .  A
N1798      O1801   1.261       .  A
C1803      C1804   1.402       .  A
C1803      C1808   1.400       .  A
C1803      H1810   1.084       .  S
C1804      C1805   1.413       .  A
C1805      C1806   1.406       .  A
C1806      C1807   1.404       .  A
C1806      H1811   1.083       .  S
C1807      C1808   1.412       .  A
C1808      N1809   1.426       .  S
N1809      O1813   1.261       .  A
N1809      O1814   1.262       .  A
N1812      O1816   1.262       .  A
N1812      O1815   1.262       .  A
C1817      C1818   1.400       .  A
C1817      C1822   1.401       .  A
C1817      H1824   1.079       .  S
C1818      C1819   1.412       .  A
C1819      C1820   1.398       .  A
C1819      N1826   1.426       .  S
C1820      C1821   1.401       .  A
C1820      H1825   1.083       .  S
C1821      C1822   1.414       .  A
C1822      N1823   1.429       .  S
N1823      O1827   1.262       .  A
N1823      O1828   1.262       .  A
N1826      O1830   1.261       .  A
N1826      O1829   1.262       .  A
C1831      C1832   1.404       .  A
C1831      C1836   1.403       .  A
C1831      H1838   1.084       .  S
C1832      C1833   1.414       .  A
C1833      C1834   1.399       .  A
C1833      N1840   1.428       .  S
C1834      C1835   1.398       .  A
C1834      H1839   1.084       .  S
C1835      C1836   1.409       .  A
C1836      N1837   1.428       .  S
N1837      O1841   1.262       .  A
N1837      O1842   1.262   1_655  A
N1840      O1844   1.263       .  A
N1840      O1843   1.260       .  A
C1845      C1846   1.404       .  A
C1845      C1850   1.401       .  A
C1845      H1852   1.082       .  S
C1846      C1847   1.415       .  A
C1847      C1848   1.401       .  A
C1847      N1854   1.428       .  S
C1848      C1849   1.398       .  A
C1848      H1853   1.084       .  S
C1849      C1850   1.409       .  A
C1850      N1851   1.429       .  S
N1851      O1855   1.262       .  A
N1851      O1856   1.262       .  A
N1854      O1858   1.263       .  A
N1854      O1857   1.260       .  A
C1859      C1860   1.402       .  A
C1859      C1864   1.404       .  A
C1859      H1866   1.082       .  S
C1860      C1861   1.413       .  A
C1861      C1862   1.402       .  A
C1861      N1868   1.429       .  S
C1862      C1863   1.399       .  A
C1862      H1867   1.084       .  S
C1863      C1864   1.408       .  A
C1864      N1865   1.433       .  S
N1865      O1870   1.263       .  A
N1868      O1872   1.262       .  A
N1868      O1871   1.261       .  A
