geometry optimzed in LAMMPS
_audit_creation_date              2020-11-30 
_audit_creation_method            'lammps2cif' 
_symmetry_space_group_name_H-M    'P1' 
_symmetry_Int_Tables_number       1 
_symmetry_cell_setting            triclinic 
loop_ 
_symmetry_equiv_pos_as_xyz 
  x,y,z 
_cell_length_a                    43.47313329145738 
_cell_length_b                    43.498285768268126 
_cell_length_c                    43.47358311288888 
_cell_angle_alpha                 90.45890369569568 
_cell_angle_beta                  90.01342674143424 
_cell_angle_gamma                 89.66465529098129 
loop_ 
_atom_site_label 
_atom_site_type_symbol 
_atom_site_fract_x 
_atom_site_fract_y 
_atom_site_fract_z 
_atom_site_charge 
O1          O  0.45535038  0.99978620  0.22331210    -0.74780
O2          O  0.04321502  0.49969557  0.22361043    -0.74810
O3          O  0.49928357  0.45577531  0.22369893    -0.74860
O4          O  0.99902257  0.04383412  0.22335003    -0.74910
O5          O  0.49899002  0.04445070  0.27473043    -0.74840
O6          O  0.99933491  0.45649602  0.27507545    -0.74820
O7          O  0.04337411  0.00040871  0.27486055    -0.74800
O8          O  0.45504556  0.50061782  0.27461203    -0.74860
Ni9        Ni  0.49932700  0.99977338  0.22166995     1.25410
Ni10       Ni  0.99912628  0.50051667  0.27665304     1.25360
C11         C  0.44072399  0.00010668  0.24887255     0.87400
C12         C  0.05783440  0.49979692  0.24920372     0.87330
C13         C  0.99928699  0.44176785  0.24948032     0.87360
C14         C  0.49874145  0.05850249  0.24899879     0.87530
O15         O  0.47445782  0.20629974  0.24848700    -0.74780
O16         O  0.47502006  0.29461709  0.24919914    -0.74810
O17         O  0.47541486  0.25062574  0.20493078    -0.74860
O18         O  0.47350063  0.25054824  0.29290644    -0.74910
O19         O  0.02474016  0.24966298  0.29410330    -0.74840
O20         O  0.02676092  0.24963824  0.20599253    -0.74820
O21         O  0.02613849  0.29369611  0.25038964    -0.74800
O22         O  0.02557485  0.20597027  0.24979453    -0.74860
Ni23       Ni  0.47274891  0.25052995  0.24885802     1.25410
Ni24       Ni  0.02760244  0.24975405  0.25011186     1.25360
C25         C  0.00008167  0.19147145  0.24896580     0.87400
C26         C  0.00081054  0.30881890  0.24975979     0.87330
C27         C  0.50136503  0.25014744  0.19108026     0.87360
C28         C  0.49876021  0.25004298  0.30802821     0.87530
O29         O  0.29310583  0.02639270  0.25032911    -0.74780
O30         O  0.20505118  0.02571125  0.25151193    -0.74810
O31         O  0.24971010  0.02521295  0.29475386    -0.74860
O32         O  0.24831656  0.02668480  0.20664026    -0.74910
O33         O  0.24985697  0.47536635  0.20543252    -0.74840
O34         O  0.24954530  0.47407303  0.29341292    -0.74820
O35         O  0.20560425  0.47440673  0.24917401    -0.74800
O36         O  0.29368144  0.47506431  0.24946925    -0.74860
Ni37       Ni  0.24903697  0.02784194  0.25079962     1.25410
Ni38       Ni  0.24969080  0.47290375  0.24933169     1.25360
C39         C  0.30775194  0.50083573  0.25018277     0.87400
C40         C  0.19085002  0.49994217  0.25062350     0.87330
C41         C  0.24987831  0.99936308  0.30871982     0.87360
C42         C  0.24884526  0.00121535  0.19161155     0.87530
O43         O  0.22298167  0.04396163  0.50066496    -0.74780
O44         O  0.22494331  0.45580604  0.00002490    -0.74810
O45         O  0.22411267  0.00000421  0.04435169    -0.74860
O46         O  0.22358635  0.49998613  0.45625334    -0.74910
O47         O  0.27493760  0.00057489  0.45598168    -0.74840
O48         O  0.27536100  0.50057444  0.04403430    -0.74820
O49         O  0.27612328  0.45666024  0.49959738    -0.74800
O50         O  0.27403303  0.04460823  0.00027692    -0.74860
Ni51       Ni  0.22203250  0.99987498  0.00032861     1.25410
Ni52       Ni  0.27695750  0.50064103  0.49997879     1.25360
C53         C  0.24826360  0.05894123  0.50050525     0.87400
C54         C  0.25089733  0.44161250  0.99964821     0.87330
C55         C  0.24983564  0.50020427  0.05874262     0.87360
C56         C  0.24918535  0.00038018  0.44173626     0.87530
O57         O  0.45680891  0.27422556  0.99939787    -0.74780
O58         O  0.04481471  0.27674196  0.49891233    -0.74810
O59         O  0.50026608  0.27455209  0.45495247    -0.74860
O60         O  0.00104156  0.27648504  0.04302691    -0.74910
O61         O  0.50281899  0.22540722  0.04382907    -0.74840
O62         O  0.00211036  0.22331138  0.45571240    -0.74820
O63         O  0.04642010  0.22541542  0.99930830    -0.74800
O64         O  0.45827327  0.22347061  0.49999008    -0.74860
Ni65       Ni  0.50070704  0.27744592  0.49900857     1.25410
Ni66       Ni  0.00250314  0.22244290  0.99975930     1.25360
C67         C  0.44295236  0.24831006  0.99975104     0.87400
C68         C  0.05995143  0.25141586  0.49913558     0.87330
C69         C  0.00103328  0.24857678  0.44084575     0.87360
C70         C  0.50206636  0.25133363  0.05809291     0.87530
O71         O  0.25210860  0.20688955  0.02699846    -0.74780
O72         O  0.25108405  0.29493893  0.02539703    -0.74810
O73         O  0.20781694  0.25082618  0.02691372    -0.74860
O74         O  0.29583042  0.25134666  0.02547659    -0.74910
O75         O  0.29512080  0.24915020  0.47413407    -0.74840
O76         O  0.20702333  0.24994321  0.47573470    -0.74820
O77         O  0.25118907  0.29359485  0.47402842    -0.74800
O78         O  0.25093486  0.20559878  0.47564246    -0.74860
Ni79       Ni  0.25180278  0.25101386  0.02803032     1.25410
Ni80       Ni  0.25104788  0.24951993  0.47304662     1.25360
C81         C  0.25135274  0.19186779  0.50155810     0.87400
C82         C  0.25076574  0.30864909  0.49944982     0.87330
C83         C  0.19280580  0.25056581  0.00158381     0.87360
C84         C  0.30988574  0.25040784  0.99959665     0.87530
C85         C  0.35921758  0.22363063  0.49114975    -0.26670
C86         C  0.34368189  0.25064143  0.99918204    -0.14740
C87         C  0.36073691  0.27706308  0.00724923     0.35890
C88         C  0.39290627  0.27540102  0.00732649    -0.26120
C89         C  0.40871181  0.24799565  0.99988945    -0.15360
C90         C  0.39149860  0.22181873  0.49198112     0.36970
N91         N  0.40662811  0.19322807  0.48456405    -0.89610
H92         H  0.34604679  0.20352105  0.48479824     0.18090
H93         H  0.40561974  0.29589849  0.01350040     0.18080
N94         N  0.34641905  0.30594665  0.01526489    -0.88640
H95         H  0.39067641  0.17683882  0.47719824     0.35460
H96         H  0.41602510  0.18470821  0.50495157     0.40550
H97         H  0.32248609  0.30474279  0.01444460     0.40170
H98         H  0.35289319  0.32198761  0.99872319     0.35060
C99         C  0.14287348  0.24268725  0.47471433    -0.26670
C100        C  0.15859233  0.25095120  0.00184317    -0.14740
C101        C  0.14128035  0.26001771  0.02810676     0.35890
C102        C  0.10898393  0.26084930  0.02634569    -0.25940
C103        C  0.09368247  0.25207826  0.49938176    -0.15360
C104        C  0.11062983  0.24313605  0.47327665     0.36970
N105        N  0.09496794  0.23470809  0.44537798    -0.89610
H106        H  0.15576261  0.23571622  0.45448343     0.18090
H107        H  0.09558363  0.26761563  0.04633535     0.18080
N108        N  0.15628507  0.26869061  0.05632252    -0.88640
H109        H  0.11075344  0.22850010  0.42824832     0.35460
H110        H  0.08334377  0.25422797  0.43748257     0.40550
H111        H  0.16551199  0.24868122  0.06588658     0.40170
H112        H  0.14027769  0.27707100  0.07231159     0.35060
C113        C  0.27623550  0.35790897  0.48912931    -0.26670
C114        C  0.24994711  0.34239894  0.99891361    -0.14740
C115        C  0.22380684  0.35938805  0.00855809     0.35890
C116        C  0.22494279  0.39156834  0.00860684    -0.26120
C117        C  0.25150207  0.40739158  0.99943480    -0.15360
C118        C  0.27761736  0.39018498  0.48975137     0.36970
N119        N  0.30532673  0.40528385  0.48022638    -0.89610
H120        H  0.29609650  0.34469559  0.48160087     0.18090
H121        H  0.20475290  0.40428790  0.01610716     0.18080
N122        N  0.19570334  0.34497799  0.01815498    -0.88640
H123        H  0.32119813  0.38932592  0.47145515     0.35460
H124        H  0.31551909  0.41464295  0.49994122     0.40550
H125        H  0.19705668  0.32106175  0.01675430     0.40170
H126        H  0.17842597  0.35159521  0.00279128     0.35060
C127        C  0.27633878  0.10866349  0.49786829    -0.26670
C128        C  0.24806803  0.09323271  0.50060113    -0.14740
C129        C  0.22058894  0.11093139  0.00380184     0.35890
C130        C  0.22238926  0.14322190  0.00475209    -0.26120
C131        C  0.25072198  0.15814850  0.50198317    -0.15360
C132        C  0.27789126  0.14088017  0.49851625     0.36970
N133        N  0.30692564  0.15618854  0.49551037    -0.89610
H134        H  0.29747303  0.09560612  0.49522275     0.18090
H135        H  0.20158472  0.15689491  0.00714460     0.18080
N136        N  0.19109258  0.09635294  0.00612269    -0.88640
H137        H  0.32477911  0.14020386  0.49268806     0.35460
H138        H  0.31118270  0.16783321  0.51619817     0.40550
H139        H  0.18621729  0.08652578  0.98465387     0.40170
H140        H  0.17376734  0.11265624  0.01020952     0.35060
C141        C  0.25408369  0.47292941  0.39227723    -0.26670
C142        C  0.24909276  0.00068892  0.40800230    -0.14740
C143        C  0.24462873  0.02805572  0.39127148     0.35890
C144        C  0.24515734  0.02684184  0.35907903    -0.26120
C145        C  0.25004758  0.99902243  0.34297960    -0.15360
C146        C  0.25476974  0.47170290  0.35996374     0.36970
N147        N  0.26061303  0.44286575  0.34459234    -0.89610
H148        H  0.25770641  0.45210281  0.40536339     0.18090
H149        H  0.24161233  0.04803664  0.34660769     0.18080
N150        N  0.24012768  0.05749965  0.40598169    -0.88640
H151        H  0.26244473  0.42501608  0.36047145     0.35460
H152        H  0.28209430  0.44444853  0.33392278     0.40550
H153        H  0.24079777  0.05599295  0.42990959     0.40170
H154        H  0.21809762  0.06531625  0.40021759     0.35060
C155        C  0.22521390  0.01411708  0.10861218    -0.26670
C156        C  0.24989496  0.00023147  0.09281783    -0.14740
C157        C  0.27391586  0.48642372  0.10980999     0.35890
C158        C  0.27284505  0.48720827  0.14211275    -0.26120
C159        C  0.24842265  0.00143073  0.15777184    -0.15360
C160        C  0.22409566  0.01488826  0.14081330     0.36970
N161        N  0.19735508  0.02832079  0.15518940    -0.89610
H162        H  0.20650656  0.02451374  0.09581532     0.18090
H163        H  0.29126425  0.47667733  0.15522463     0.18080
N164        N  0.29899757  0.47117245  0.09430673    -0.88640
H165        H  0.19753231  0.05189598  0.15070722     0.35460
H166        H  0.19749906  0.02577455  0.17901554     0.40550
H167        H  0.28998469  0.45216949  0.08257938     0.40170
H168        H  0.31484943  0.46254405  0.11019020     0.35060
C169        C  0.47843175  0.26629618  0.39172530    -0.26670
C170        C  0.00014445  0.24789796  0.40691652    -0.14740
C171        C  0.02085081  0.22968637  0.38954757     0.35890
C172        C  0.02007982  0.23115680  0.35729375    -0.26120
C173        C  0.49817515  0.24930707  0.34202574    -0.15360
C174        C  0.47670432  0.26667609  0.35943558     0.36970
N175        N  0.45395293  0.28541943  0.34442300    -0.89610
H176        H  0.46240692  0.28004874  0.40517928     0.18090
H177        H  0.03637514  0.21763725  0.34393534     0.18080
N178        N  0.04323963  0.21059117  0.40462289    -0.88640
H179        H  0.44158119  0.29843239  0.36058217     0.35460
H180        H  0.43802032  0.27063536  0.33417297     0.40550
H181        H  0.03146319  0.19260247  0.41508838     0.40170
H182        H  0.05802892  0.20034907  0.38852722     0.35060
C183        C  0.00769456  0.22424449  0.10819591    -0.26670
C184        C  0.50236317  0.25193946  0.09239483    -0.14740
C185        C  0.49690456  0.27924939  0.10973875     0.35890
C186        C  0.49638557  0.27792492  0.14203630    -0.26120
C187        C  0.50190462  0.25031604  0.15735946    -0.15360
C188        C  0.00753836  0.22320149  0.14048464     0.36970
N189        N  0.01294004  0.19473304  0.15624902    -0.89610
H190        H  0.01197635  0.20320588  0.09536846     0.18090
H191        H  0.49205230  0.29863942  0.15541800     0.18080
N192        N  0.49162907  0.30817414  0.09478687    -0.88640
H193        H  0.01688221  0.17686328  0.14048447     0.35460
H194        H  0.99281837  0.18922345  0.16812120     0.40550
H195        H  0.51250468  0.31491986  0.08507625     0.40170
H196        H  0.48584565  0.32526339  0.11085965     0.35060
C197        C  0.10788533  0.01030451  0.27543008    -0.26670
C198        C  0.09203146  0.49932245  0.24929935    -0.14740
C199        C  0.10926095  0.48796778  0.22395497     0.35890
C200        C  0.14156630  0.48834673  0.22521501    -0.26120
C201        C  0.15704268  0.49966957  0.25114082    -0.15360
C202        C  0.14009128  0.01064830  0.27671246     0.36970
N203        N  0.15439845  0.02130924  0.30464863    -0.89610
H204        H  0.09505208  0.01884229  0.29511851     0.18090
H205        H  0.15482786  0.47986200  0.20577396     0.18080
N206        N  0.09404998  0.47571099  0.19720638    -0.88640
H207        H  0.14949122  0.04476801  0.30699158     0.35460
H208        H  0.17828274  0.01898278  0.30404083     0.40550
H209        H  0.08261225  0.45576074  0.20387976     0.40170
H210        H  0.11008177  0.46897309  0.18050167     0.35060
C211        C  0.35719309  0.48609385  0.22646275    -0.26670
C212        C  0.34158921  0.50097189  0.25058936    -0.14740
C213        C  0.35876072  0.01553130  0.27426134     0.35890
C214        C  0.39094712  0.01481508  0.27307179    -0.26120
C215        C  0.40666499  0.00012372  0.24881888    -0.15360
C216        C  0.38948138  0.48563301  0.22517856     0.36970
N217        N  0.40489285  0.47030151  0.20007937    -0.89610
H218        H  0.34404556  0.47498447  0.20837324     0.18090
H219        H  0.40379584  0.02595967  0.29134780     0.18080
N220        N  0.34448417  0.03013699  0.30045370    -0.88640
H221        H  0.38895675  0.46126980  0.18447074     0.35460
H222        H  0.41692782  0.45157906  0.20910526     0.40550
H223        H  0.32068346  0.02736114  0.30064954     0.40170
H224        H  0.34880914  0.05370814  0.29912754     0.35060
C225        C  0.02745046  0.39251591  0.25263112    -0.26670
C226        C  0.99941799  0.40806638  0.24973196    -0.14740
C227        C  0.47194041  0.39143519  0.24700778     0.35890
C228        C  0.47305486  0.35914990  0.24690673    -0.26120
C229        C  0.00116943  0.34310960  0.24960525    -0.15360
C230        C  0.02880447  0.36022309  0.25236307     0.36970
N231        N  0.05815398  0.34504982  0.25496486    -0.89610
H232        H  0.04844334  0.40570718  0.25470900     0.18090
H233        H  0.45175360  0.34652640  0.24474874     0.18080
N234        N  0.44305907  0.40743791  0.24427899    -0.88640
H235        H  0.07563441  0.36100609  0.25896586     0.35460
H236        H  0.06302396  0.33491176  0.23361528     0.40550
H237        H  0.43937262  0.41970111  0.26474560     0.40170
H238        H  0.42494047  0.39185776  0.24218390     0.35060
C239        C  0.47194314  0.14152728  0.24821147    -0.26670
C240        C  0.00020617  0.15718091  0.24866174    -0.14740
C241        C  0.02791383  0.13969688  0.24917256     0.35890
C242        C  0.02649941  0.10746162  0.24957880    -0.26120
C243        C  0.49832206  0.09220362  0.24893877    -0.15360
C244        C  0.47062395  0.10933631  0.24835056     0.36970
N245        N  0.44086074  0.09502720  0.24765600    -0.89610
H246        H  0.45050318  0.15433972  0.24776584     0.18090
H247        H  0.04759420  0.09404436  0.25004393     0.18080
N248        N  0.05743811  0.15444266  0.24921899    -0.88640
H249        H  0.42940883  0.10116942  0.26795932     0.35460
H250        H  0.44250360  0.07108775  0.24745557     0.40550
H251        H  0.06039032  0.16434890  0.22759037     0.40170
H252        H  0.07517063  0.13828010  0.25154806     0.35060
O253        O  0.45535031  0.99978619  0.72331204    -0.74780
O254        O  0.04321496  0.49969558  0.72361046    -0.74810
O255        O  0.49928352  0.45577530  0.72369892    -0.74860
O256        O  0.99902252  0.04383412  0.72335000    -0.74910
O257        O  0.49898988  0.04445070  0.77473041    -0.74840
O258        O  0.99933478  0.45649603  0.77507544    -0.74820
O259        O  0.04337395  0.00040873  0.77486058    -0.74800
O260        O  0.45504540  0.50061781  0.77461198    -0.74860
Ni261      Ni  0.49932694  0.99977338  0.72166993     1.25410
Ni262      Ni  0.99912612  0.50051668  0.77665302     1.25360
C263        C  0.44072387  0.00010666  0.74887246     0.87400
C264        C  0.05783429  0.49979695  0.74920378     0.87330
C265        C  0.99928692  0.44176785  0.74948031     0.87360
C266        C  0.49874139  0.05850248  0.74899876     0.87530
O267        O  0.47445762  0.20629952  0.74848815    -0.74780
O268        O  0.47501992  0.29461696  0.74919805    -0.74810
O269        O  0.47541603  0.25062182  0.70493037    -0.74860
O270        O  0.47349851  0.25055115  0.79290822    -0.74910
O271        O  0.02473808  0.24966600  0.79410221    -0.74840
O272        O  0.02676198  0.24963441  0.70599194    -0.74820
O273        O  0.02613830  0.29369593  0.75038846    -0.74800
O274        O  0.02557464  0.20597018  0.74979567    -0.74860
Ni275      Ni  0.47274848  0.25052964  0.74885824     1.25410
Ni276      Ni  0.02760192  0.24975381  0.75011155     1.25360
C277        C  0.00008153  0.19147134  0.74896649     0.87400
C278        C  0.00081041  0.30881879  0.74975916     0.87330
C279        C  0.50136623  0.25014059  0.69107943     0.87360
C280        C  0.49875905  0.25004766  0.80802885     0.87530
O281        O  0.29310567  0.02639255  0.75032825    -0.74780
O282        O  0.20505108  0.02571093  0.75151206    -0.74810
O283        O  0.24971048  0.02521374  0.79475362    -0.74860
O284        O  0.24831632  0.02668318  0.70663979    -0.74910
O285        O  0.24985741  0.47536472  0.70543380    -0.74840
O286        O  0.24954548  0.47407379  0.79341398    -0.74820
O287        O  0.20560424  0.47440640  0.74917528    -0.74800
O288        O  0.29368148  0.47506412  0.74947019    -0.74860
Ni289      Ni  0.24903686  0.02784164  0.75079923     1.25410
Ni290      Ni  0.24969087  0.47290342  0.74933288     1.25360
C291        C  0.30775187  0.50083563  0.75018258     0.87400
C292        C  0.19084996  0.49994186  0.75062426     0.87330
C293        C  0.24987801  0.99936421  0.80872025     0.87360
C294        C  0.24884711  0.00121324  0.69161195     0.87530
O295        O  0.22289817  0.04394941  0.00066404    -0.74780
O296        O  0.22496211  0.45582009  0.50002330    -0.74810
O297        O  0.22415884  0.00001780  0.54434927    -0.74860
O298        O  0.22353732  0.49996922  0.95625189    -0.74910
O299        O  0.27488801  0.00058927  0.95598239    -0.74840
O300        O  0.27540755  0.50056372  0.54403754    -0.74820
O301        O  0.27610398  0.45667260  0.99959407    -0.74800
O302        O  0.27411664  0.04459878  0.50027626    -0.74860
Ni303      Ni  0.22208256  0.99989076  0.50032811     1.25410
Ni304      Ni  0.27690699  0.50065436  0.99997749     1.25360
C305        C  0.24817374  0.05893986  0.00050448     0.87400
C306        C  0.25090860  0.44161316  0.49964839     0.87330
C307        C  0.24987963  0.50020622  0.55874315     0.87360
C308        C  0.24913716  0.00037848  0.94173596     0.87530
O309        O  0.45680178  0.27458355  0.49937223    -0.74780
O310        O  0.04478725  0.27673172  0.99890731    -0.74810
O311        O  0.50023100  0.27440749  0.95497562    -0.74860
O312        O  0.00104921  0.27661950  0.54303533    -0.74910
O313        O  0.50270245  0.22553744  0.54380859    -0.74840
O314        O  0.00220329  0.22317129  0.95570414    -0.74820
O315        O  0.04632037  0.22542277  0.49931261    -0.74800
O316        O  0.45835990  0.22311242  0.00000871    -0.74860
Ni317      Ni  0.50068381  0.27727404  0.99901718     1.25410
Ni318      Ni  0.00239287  0.22261031  0.49975211     1.25360
C319        C  0.44290570  0.24868921  0.49972327     0.87400
C320        C  0.05998398  0.25144329  0.99912921     0.87330
C321        C  0.00104792  0.24844919  0.94085179     0.87360
C322        C  0.50202031  0.25144984  0.55808785     0.87530
O323        O  0.25212153  0.20688815  0.52699737    -0.74780
O324        O  0.25105877  0.29493665  0.52539536    -0.74810
O325        O  0.20780315  0.25081117  0.52691099    -0.74860
O326        O  0.29580480  0.25135425  0.52548033    -0.74910
O327        O  0.29513778  0.24913991  0.97413250    -0.74840
O328        O  0.20703435  0.24995887  0.97573730    -0.74820
O329        O  0.25121052  0.29359759  0.97403009    -0.74800
O330        O  0.25091811  0.20560163  0.97564410    -0.74860
Ni331      Ni  0.25178776  0.25101032  0.52802977     1.25410
Ni332      Ni  0.25105794  0.24952374  0.97304830     1.25360
C333        C  0.25131248  0.19186933  0.00155958     0.87400
C334        C  0.25078819  0.30865099  0.99945176     0.87330
C335        C  0.19279290  0.25055171  0.50158058     0.87360
C336        C  0.30985901  0.25043065  0.49960197     0.87530
C337        C  0.35917943  0.22346140  0.99112763    -0.26670
C338        C  0.34364258  0.25076177  0.49919459    -0.14740
C339        C  0.36060626  0.27724471  0.50725606     0.35890
C340        C  0.39278639  0.27570160  0.50730461    -0.26120
C341        C  0.40866890  0.24834701  0.49984918    -0.15360
C342        C  0.39146164  0.22153325  0.99198409     0.36970
N343        N  0.40650643  0.19291020  0.98452582    -0.89610
H344        H  0.34594479  0.20340593  0.98474209     0.18090
H345        H  0.40544594  0.29623387  0.51347346     0.18080
N346        N  0.34617860  0.30606913  0.51529387    -0.88640
H347        H  0.39050218  0.17658017  0.97713924     0.35460
H348        H  0.41589203  0.18433934  0.00489632     0.40550
H349        H  0.32225071  0.30478280  0.51446469     0.40170
H350        H  0.35259817  0.32214969  0.49877022     0.35060
C351        C  0.14288906  0.24270837  0.97471584    -0.26670
C352        C  0.15857741  0.25093227  0.50184014    -0.14740
C353        C  0.14126322  0.25999003  0.52810491     0.35890
C354        C  0.10896403  0.26078680  0.52635371    -0.25940
C355        C  0.09370650  0.25216874  0.99936394    -0.15360
C356        C  0.11064809  0.24318928  0.97327010     0.36970
N357        N  0.09497924  0.23472727  0.94538463    -0.89610
H358        H  0.15577613  0.23570969  0.95449289     0.18090
H359        H  0.09556485  0.26756148  0.54634127     0.18080
N360        N  0.15626836  0.26869203  0.55631171    -0.88640
H361        H  0.11075982  0.22848503  0.92826277     0.35460
H362        H  0.08336124  0.25423921  0.93746119     0.40550
H363        H  0.16551237  0.24869544  0.56588605     0.40170
H364        H  0.14025829  0.27706927  0.57229960     0.35060
C365        C  0.27625191  0.35791372  0.98913713    -0.26670
C366        C  0.24992989  0.34239851  0.49891069    -0.14740
C367        C  0.22379346  0.35939339  0.50855571     0.35890
C368        C  0.22493492  0.39157448  0.50860162    -0.26120
C369        C  0.25149883  0.40739192  0.49943161    -0.15360
C370        C  0.27762536  0.39019060  0.98975588     0.36970
N371        N  0.30533068  0.40529602  0.98023019    -0.89610
H372        H  0.29611905  0.34470275  0.98161826     0.18090
H373        H  0.20474766  0.40429902  0.51610063     0.18080
N374        N  0.19568847  0.34498805  0.51815512    -0.88640
H375        H  0.32120790  0.38934084  0.97146442     0.35460
H376        H  0.31551775  0.41466370  0.99994368     0.40550
H377        H  0.19703914  0.32107140  0.51675851     0.40170
H378        H  0.17841193  0.35160462  0.50279027     0.35060
C379        C  0.27624554  0.10865542  0.99785346    -0.26670
C380        C  0.24797318  0.09323170  0.00059738    -0.14740
C381        C  0.22067848  0.11092543  0.50379650     0.35890
C382        C  0.22246818  0.14321324  0.50474652    -0.26120
C383        C  0.25065053  0.15814839  0.00198277    -0.15360
C384        C  0.27780939  0.14086912  0.99850472     0.36970
N385        N  0.30684878  0.15616546  0.99549320    -0.89610
H386        H  0.29737616  0.09559420  0.99519873     0.18090
H387        H  0.20165802  0.15687911  0.50713165     0.18080
N388        N  0.19118375  0.09634217  0.50610545    -0.88640
H389        H  0.32469532  0.14017490  0.99266055     0.35460
H390        H  0.31111697  0.16780227  0.01618310     0.40550
H391        H  0.18631477  0.08652327  0.48463142     0.40170
H392        H  0.17385452  0.11264060  0.51019481     0.35060
C393        C  0.25404790  0.47292789  0.89227819    -0.26670
C394        C  0.24905100  0.00068707  0.90800210    -0.14740
C395        C  0.24460795  0.02805664  0.89127064     0.35890
C396        C  0.24515176  0.02684411  0.85907840    -0.26120
C397        C  0.25004175  0.99902408  0.84298001    -0.15360
C398        C  0.25475414  0.47170357  0.85996508     0.36970
N399        N  0.26060915  0.44286797  0.84459508    -0.89610
H400        H  0.25766244  0.45210041  0.90536513     0.18090
H401        H  0.24161867  0.04804044  0.84660644     0.18080
N402        N  0.24011373  0.05750183  0.90598032    -0.88640
H403        H  0.26243563  0.42501777  0.86047415     0.35460
H404        H  0.28209541  0.44445452  0.83393612     0.40550
H405        H  0.24076953  0.05599311  0.92990848     0.40170
H406        H  0.21809077  0.06532985  0.90020474     0.35060
C407        C  0.22524429  0.01412078  0.60860557    -0.26670
C408        C  0.24992997  0.00023397  0.59281858    -0.14740
C409        C  0.27394161  0.48642004  0.60981811     0.35890
C410        C  0.27285940  0.48720289  0.64212054    -0.26120
C411        C  0.24843329  0.00142749  0.65777216    -0.15360
C412        C  0.22411340  0.01488800  0.64080626     0.36970
N413        N  0.19736737  0.02831871  0.65517397    -0.89610
H414        H  0.20654228  0.02452019  0.59580322     0.18090
H415        H  0.29127259  0.47666867  0.65523814     0.18080
N416        N  0.29902468  0.47116321  0.59432269    -0.88640
H417        H  0.19754598  0.05189444  0.65069465     0.35460
H418        H  0.19750286  0.02576959  0.67899988     0.40550
H419        H  0.29001082  0.45216301  0.58259156     0.40170
H420        H  0.31486875  0.46252996  0.61021123     0.35060
C421        C  0.47844447  0.26625590  0.89174398    -0.26670
C422        C  0.00014605  0.24782133  0.90691903    -0.14740
C423        C  0.02086307  0.22964789  0.88953058     0.35890
C424        C  0.02009064  0.23114986  0.85727988    -0.26120
C425        C  0.49818030  0.24930489  0.84202694    -0.15360
C426        C  0.47671464  0.26666560  0.85945131     0.36970
N427        N  0.45396210  0.28541903  0.84445111    -0.89610
H428        H  0.46242581  0.28000340  0.90521050     0.18090
H429        H  0.03638904  0.21764533  0.84391056     0.18080
N430        N  0.04326792  0.21055791  0.90458738    -0.88640
H431        H  0.44158923  0.29841874  0.86061974     0.35460
H432        H  0.43803086  0.27064153  0.83418891     0.40550
H433        H  0.03150706  0.19254552  0.91502958     0.40170
H434        H  0.05806873  0.20034792  0.88848279     0.35060
C435        C  0.00768292  0.22428988  0.60817005    -0.26670
C436        C  0.50234442  0.25200466  0.59239241    -0.14740
C437        C  0.49689764  0.27929377  0.60976108     0.35890
C438        C  0.49638533  0.27794231  0.64205571    -0.26120
C439        C  0.50190503  0.25032290  0.65735804    -0.15360
C440        C  0.00753547  0.22321971  0.64046282     0.36970
N441        N  0.01294074  0.19474105  0.65621036    -0.89610
H442        H  0.01196112  0.20326239  0.59532244     0.18090
H443        H  0.49205560  0.29864724  0.65545293     0.18080
N444        N  0.49162225  0.30822883  0.59483223    -0.88640
H445        H  0.01687179  0.17687976  0.64043384     0.35460
H446        H  0.99282507  0.18922778  0.66809138     0.40550
H447        H  0.51249947  0.31498254  0.58513048     0.40170
H448        H  0.48583637  0.32530462  0.61091765     0.35060
C449        C  0.10788509  0.01030458  0.77543035    -0.26670
C450        C  0.09203135  0.49932251  0.74929953    -0.14740
C451        C  0.10926097  0.48796779  0.72395527     0.35890
C452        C  0.14156632  0.48834658  0.72521556    -0.26120
C453        C  0.15704258  0.49966931  0.75114148    -0.15360
C454        C  0.14009104  0.01064823  0.77671296     0.36970
N455        N  0.15439805  0.02130932  0.80464916    -0.89610
H456        H  0.09505174  0.01884249  0.79511866     0.18090
H457        H  0.15482798  0.47986180  0.70577459     0.18080
N458        N  0.09405014  0.47571110  0.69720655    -0.88640
H459        H  0.14949084  0.04476811  0.80699194     0.35460
H460        H  0.17828235  0.01898284  0.80404147     0.40550
H461        H  0.08261228  0.45576088  0.70387982     0.40170
H462        H  0.11008202  0.46897316  0.68050195     0.35060
C463        C  0.35719300  0.48609396  0.72646238    -0.26670
C464        C  0.34158910  0.50097195  0.75058899    -0.14740
C465        C  0.35876054  0.01553133  0.77426103     0.35890
C466        C  0.39094693  0.01481504  0.77307161    -0.26120
C467        C  0.40666486  0.00012370  0.74881872    -0.15360
C468        C  0.38948130  0.48563305  0.72517832     0.36970
N469        N  0.40489284  0.47030150  0.70007921    -0.89610
H470        H  0.34404549  0.47498461  0.70837282     0.18090
H471        H  0.40379561  0.02595957  0.79134767     0.18080
N472        N  0.34448390  0.03013704  0.80045334    -0.88640
H473        H  0.38895679  0.46126983  0.68447050     0.35460
H474        H  0.41692771  0.45157901  0.70910516     0.40550
H475        H  0.32068315  0.02736143  0.80064896     0.40170
H476        H  0.34880909  0.05370815  0.79912731     0.35060
C477        C  0.02745043  0.39251591  0.75263118    -0.26670
C478        C  0.99941796  0.40806638  0.74973196    -0.14740
C479        C  0.47194040  0.39143516  0.74700774     0.35890
C480        C  0.47305486  0.35914988  0.74690668    -0.26120
C481        C  0.00116939  0.34310955  0.74960516    -0.15360
C482        C  0.02880444  0.36022307  0.75236312     0.36970
N483        N  0.05815395  0.34504982  0.75496499    -0.89610
H484        H  0.04844329  0.40570719  0.75470910     0.18090
H485        H  0.45175361  0.34652639  0.74474861     0.18080
N486        N  0.44305906  0.40743787  0.74427889    -0.88640
H487        H  0.07563436  0.36100610  0.75896602     0.35460
H488        H  0.06302399  0.33491177  0.73361541     0.40550
H489        H  0.43937257  0.41970107  0.76474549     0.40170
H490        H  0.42494047  0.39185771  0.74218377     0.35060
C491        C  0.47194314  0.14152724  0.74821149    -0.26670
C492        C  0.00020615  0.15718086  0.74866186    -0.14740
C493        C  0.02791383  0.13969686  0.74917255     0.35890
C494        C  0.02649940  0.10746160  0.74957876    -0.26120
C495        C  0.49832204  0.09220360  0.74893874    -0.15360
C496        C  0.47062393  0.10933630  0.74835054     0.36970
N497        N  0.44086071  0.09502722  0.74765600    -0.89610
H498        H  0.45050318  0.15433968  0.74776590     0.18090
H499        H  0.04759419  0.09404433  0.75004391     0.18080
N500        N  0.05743811  0.15444265  0.74921900    -0.88640
H501        H  0.42940883  0.10116945  0.76795933     0.35460
H502        H  0.44250356  0.07108778  0.74745556     0.40550
H503        H  0.06039030  0.16434896  0.72759041     0.40170
H504        H  0.07517064  0.13828009  0.75154803     0.35060
O505        O  0.45520029  0.49978503  0.22333457    -0.74780
O506        O  0.04336317  0.99969607  0.22362857    -0.74810
O507        O  0.49942872  0.95577544  0.22369764    -0.74860
O508        O  0.99887750  0.54383336  0.22334929    -0.74910
O509        O  0.49886089  0.54445169  0.27472967    -0.74840
O510        O  0.99945551  0.95649599  0.27507418    -0.74820
O511        O  0.04324285  0.50041361  0.27484245    -0.74800
O512        O  0.45517618  0.00062182  0.27458962    -0.74860
Ni513      Ni  0.49917731  0.49977278  0.22167110     1.25410
Ni514      Ni  0.99925493  0.00051610  0.27665194     1.25360
C515        C  0.44058329  0.50010159  0.24890084     0.87400
C516        C  0.05797419  0.99979307  0.24922646     0.87330
C517        C  0.99940903  0.94176799  0.24947913     0.87360
C518        C  0.49861510  0.55850279  0.24899746     0.87530
O519        O  0.47444589  0.70631053  0.24848631    -0.74780
O520        O  0.47503259  0.79462766  0.24919976    -0.74810
O521        O  0.47541525  0.75063567  0.20493068    -0.74860
O522        O  0.47350116  0.75055737  0.29290618    -0.74910
O523        O  0.02474033  0.74965092  0.29410275    -0.74840
O524        O  0.02676099  0.74962635  0.20599207    -0.74820
O525        O  0.02615045  0.79368294  0.25038997    -0.74800
O526        O  0.02556315  0.70595674  0.24979330    -0.74860
Ni527      Ni  0.47274934  0.75054032  0.24885788     1.25410
Ni528      Ni  0.02760262  0.74974110  0.25011134     1.25360
C529        C  0.00006287  0.69147015  0.24896472     0.87400
C530        C  0.00082948  0.80881765  0.24976117     0.87330
C531        C  0.50136524  0.75014655  0.19108000     0.87360
C532        C  0.49876054  0.75004165  0.30802792     0.87530
O533        O  0.29296984  0.52638988  0.25034539    -0.74780
O534        O  0.20491511  0.52570809  0.25149910    -0.74810
O535        O  0.24956923  0.52521234  0.29475454    -0.74860
O536        O  0.24820051  0.52667989  0.20664155    -0.74910
O537        O  0.24997435  0.97537129  0.20543019    -0.74840
O538        O  0.24968802  0.97407384  0.29340949    -0.74820
O539        O  0.20574159  0.97440971  0.24918546    -0.74800
O540        O  0.29381971  0.97506754  0.24945061    -0.74860
Ni541      Ni  0.24890240  0.52783900  0.25080076     1.25410
Ni542      Ni  0.24982689  0.97290685  0.24932848     1.25360
C543        C  0.30789011  0.00083944  0.25015861     0.87400
C544        C  0.19098743  0.99994476  0.25064092     0.87330
C545        C  0.24975181  0.49936322  0.30872150     0.87360
C546        C  0.24874336  0.50121059  0.19161295     0.87530
O547        O  0.22298530  0.54396045  0.50066396    -0.74780
O548        O  0.22493979  0.95580663  0.00002636    -0.74810
O549        O  0.22411418  0.50000334  0.04434877    -0.74860
O550        O  0.22357967  0.99998645  0.45625327    -0.74910
O551        O  0.27494432  0.50057390  0.45598415    -0.74840
O552        O  0.27535936  0.00057611  0.04402872    -0.74820
O553        O  0.27611970  0.95666165  0.49959420    -0.74800
O554        O  0.27403670  0.54460745  0.00028071    -0.74860
Ni555      Ni  0.22203670  0.49987405  0.00032724     1.25410
Ni556      Ni  0.27695325  0.00064234  0.49997497     1.25360
C557        C  0.24826698  0.55894030  0.50050651     0.87400
C558        C  0.25089410  0.94161342  0.99964757     0.87330
C559        C  0.24983671  0.00020343  0.05874123     0.87360
C560        C  0.24919247  0.50038028  0.44173758     0.87530
O561        O  0.45680886  0.77422560  0.99939782    -0.74780
O562        O  0.04481470  0.77674204  0.49891230    -0.74810
O563        O  0.50026610  0.77455216  0.45495244    -0.74860
O564        O  0.00104150  0.77648502  0.04302685    -0.74910
O565        O  0.50281895  0.72540722  0.04382890    -0.74840
O566        O  0.00211034  0.72331151  0.45571232    -0.74820
O567        O  0.04642006  0.72541548  0.99930818    -0.74800
O568        O  0.45827326  0.72347065  0.49998999    -0.74860
Ni569      Ni  0.50070703  0.77744597  0.49900853     1.25410
Ni570      Ni  0.00250309  0.72244295  0.99975915     1.25360
C571        C  0.44295232  0.74831009  0.99975097     0.87400
C572        C  0.05995141  0.75141594  0.49913550     0.87330
C573        C  0.00103332  0.74857691  0.44084571     0.87360
C574        C  0.50206634  0.75133359  0.05809278     0.87530
O575        O  0.25210848  0.70688935  0.02699836    -0.74780
O576        O  0.25108411  0.79493901  0.02539709    -0.74810
O577        O  0.20781691  0.75082620  0.02691372    -0.74860
O578        O  0.29583038  0.75134655  0.02547657    -0.74910
O579        O  0.29512079  0.74915018  0.47413406    -0.74840
O580        O  0.20702332  0.74994332  0.47573469    -0.74820
O581        O  0.25118915  0.79359506  0.47402851    -0.74800
O582        O  0.25093477  0.70559867  0.47564239    -0.74860
Ni583      Ni  0.25180275  0.75101380  0.02803030     1.25410
Ni584      Ni  0.25104787  0.74951998  0.47304662     1.25360
C585        C  0.25135269  0.69186754  0.50155799     0.87400
C586        C  0.25076581  0.80864931  0.49944992     0.87330
C587        C  0.19280576  0.75056588  0.00158381     0.87360
C588        C  0.30988570  0.75040777  0.99959662     0.87530
C589        C  0.35921759  0.72363063  0.49114972    -0.26670
C590        C  0.34368185  0.75064140  0.99918201    -0.14740
C591        C  0.36073685  0.77706306  0.00724920     0.35890
C592        C  0.39290621  0.77540102  0.00732647    -0.26120
C593        C  0.40871177  0.74799566  0.99988941    -0.15360
C594        C  0.39149861  0.72181874  0.49198110     0.36970
N595        N  0.40662813  0.69322809  0.48456403    -0.89610
H596        H  0.34604683  0.70352107  0.48479815     0.18090
H597        H  0.40561967  0.79589850  0.01350039     0.18080
N598        N  0.34641896  0.80594662  0.01526484    -0.88640
H599        H  0.39067643  0.67683883  0.47719822     0.35460
H600        H  0.41602512  0.68470824  0.50495155     0.40550
H601        H  0.32248600  0.80474277  0.01444446     0.40170
H602        H  0.35289315  0.82198760  0.99872316     0.35060
C603        C  0.14287348  0.74268733  0.47471430    -0.26670
C604        C  0.15859229  0.75095126  0.00184317    -0.14740
C605        C  0.14128029  0.76001773  0.02810677     0.35890
C606        C  0.10898388  0.76084932  0.02634569    -0.25940
C607        C  0.09368246  0.75207834  0.49938171    -0.15360
C608        C  0.11062984  0.74313613  0.47327660     0.36970
N609        N  0.09496796  0.73470819  0.44537792    -0.89610
H610        H  0.15576262  0.73571630  0.45448341     0.18090
H611        H  0.09558357  0.76761563  0.04633535     0.18080
N612        N  0.15628501  0.76869060  0.05632254    -0.88640
H613        H  0.11075347  0.72850021  0.42824827     0.35460
H614        H  0.08334381  0.75422808  0.43748252     0.40550
H615        H  0.16551194  0.74868120  0.06588657     0.40170
H616        H  0.14027762  0.77707096  0.07231163     0.35060
C617        C  0.27623478  0.85791005  0.48912969    -0.26670
C618        C  0.24994667  0.84239935  0.99891384    -0.14740
C619        C  0.22380605  0.85938802  0.00855824     0.35890
C620        C  0.22494119  0.89156838  0.00860684    -0.26120
C621        C  0.25149993  0.90739233  0.99943459    -0.15360
C622        C  0.27761583  0.89018619  0.48975154     0.36970
N623        N  0.30532504  0.90528559  0.48022688    -0.89610
H624        H  0.29609615  0.84469710  0.48160147     0.18090
H625        H  0.20475096  0.90428744  0.01610704     0.18080
N626        N  0.19570284  0.84497742  0.01815512    -0.88640
H627        H  0.32119699  0.88932793  0.47145616     0.35460
H628        H  0.31551678  0.91464523  0.49994179     0.40550
H629        H  0.19705664  0.82106121  0.01675449     0.40170
H630        H  0.17842537  0.85159428  0.00279138     0.35060
C631        C  0.27634058  0.60866343  0.49786872    -0.26670
C632        C  0.24807037  0.59323190  0.50060182    -0.14740
C633        C  0.22059071  0.61093001  0.00380204     0.35890
C634        C  0.22239015  0.64322066  0.00475192    -0.26120
C635        C  0.25072252  0.65814804  0.50198301    -0.15360
C636        C  0.27789218  0.64088021  0.49851628     0.36970
N637        N  0.30692618  0.65618921  0.49551028    -0.89610
H638        H  0.29747513  0.59560654  0.49522331     0.18090
H639        H  0.20158524  0.65689315  0.00714422     0.18080
N640        N  0.19109466  0.59635087  0.00612287    -0.88640
H641        H  0.32478001  0.64020491  0.49268803     0.35460
H642        H  0.31118300  0.66783405  0.51619804     0.40550
H643        H  0.18621966  0.58652350  0.98465408     0.40170
H644        H  0.17376902  0.61265380  0.01020953     0.35060
C645        C  0.25408345  0.97292339  0.39228061    -0.26670
C646        C  0.24909721  0.50069300  0.40800383    -0.14740
C647        C  0.24461291  0.52805950  0.39127762     0.35890
C648        C  0.24510036  0.52684474  0.35908482    -0.26120
C649        C  0.24996956  0.49902484  0.34298059    -0.15360
C650        C  0.25480587  0.97169665  0.35996799     0.36970
N651        N  0.26064239  0.94285462  0.34460337    -0.89610
H652        H  0.25768553  0.95209571  0.40537052     0.18090
H653        H  0.24153685  0.54803874  0.34661713     0.18080
N654        N  0.24012868  0.55750368  0.40599226    -0.88640
H655        H  0.26243601  0.92500284  0.36048416     0.35460
H656        H  0.28213930  0.94441754  0.33396214     0.40550
H657        H  0.24083086  0.55599831  0.42991935     0.40170
H658        H  0.21809086  0.56531916  0.40025612     0.35060
C659        C  0.22519223  0.51412970  0.10859623    -0.26670
C660        C  0.24988189  0.50024011  0.09281932    -0.14740
C661        C  0.27394170  0.98641626  0.10979154     0.35890
C662        C  0.27289884  0.98720719  0.14209394    -0.26120
C663        C  0.24835408  0.50142860  0.15777258    -0.15360
C664        C  0.22404653  0.51489573  0.14079547     0.36970
N665        N  0.19729682  0.52833294  0.15514994    -0.89610
H666        H  0.20649647  0.52453103  0.09578637     0.18090
H667        H  0.29132956  0.97667875  0.15519179     0.18080
N668        N  0.29900971  0.97115989  0.09427106    -0.88640
H669        H  0.19748833  0.55190991  0.15067774     0.35460
H670        H  0.19741375  0.52577617  0.17897497     0.40550
H671        H  0.28998563  0.95215575  0.08255447     0.40170
H672        H  0.31487389  0.96253283  0.11014304     0.35060
C673        C  0.47843214  0.76629620  0.39172519    -0.26670
C674        C  0.00014465  0.74789805  0.40691651    -0.14740
C675        C  0.02085088  0.72968618  0.38954777     0.35890
C676        C  0.02007980  0.73115615  0.35729398    -0.26120
C677        C  0.49817530  0.74930635  0.34202565    -0.15360
C678        C  0.47670465  0.76667585  0.35943548     0.36970
N679        N  0.45395312  0.78541913  0.34442303    -0.89610
H680        H  0.46240739  0.78004893  0.40517909     0.18090
H681        H  0.03637501  0.71763615  0.34393591     0.18080
N682        N  0.04323966  0.71059108  0.40462327    -0.88640
H683        H  0.44158217  0.79843292  0.36058216     0.35460
H684        H  0.43801981  0.77063498  0.33417423     0.40550
H685        H  0.03146320  0.69260242  0.41508882     0.40170
H686        H  0.05802903  0.70034890  0.38852773     0.35060
C687        C  0.00769483  0.72424416  0.10819547    -0.26670
C688        C  0.50236324  0.75193925  0.09239466    -0.14740
C689        C  0.49690452  0.77924903  0.10973874     0.35890
C690        C  0.49638530  0.77792427  0.14203625    -0.26120
C691        C  0.50190474  0.75031534  0.15735922    -0.15360
C692        C  0.00753876  0.72320091  0.14048416     0.36970
N693        N  0.01294019  0.69473227  0.15624829    -0.89610
H694        H  0.01197666  0.70320565  0.09536786     0.18090
H695        H  0.49205192  0.79863865  0.15541809     0.18080
N696        N  0.49162922  0.80817392  0.09478707    -0.88640
H697        H  0.01688228  0.67686263  0.14048359     0.35460
H698        H  0.99281844  0.68922272  0.16812035     0.40550
H699        H  0.51250488  0.81491960  0.08507653     0.40170
H700        H  0.48584589  0.82526309  0.11085997     0.35060
C701        C  0.10774548  0.51030918  0.27540194    -0.26670
C702        C  0.09217127  0.99931462  0.24932855    -0.14740
C703        C  0.10940074  0.98795815  0.22398478     0.35890
C704        C  0.14170514  0.98834155  0.22524212    -0.26120
C705        C  0.15718151  0.99967007  0.25116450    -0.15360
C706        C  0.13995081  0.51064746  0.27668779     0.36970
N707        N  0.15425545  0.52130146  0.30462778    -0.89610
H708        H  0.09491248  0.51884638  0.29509083     0.18090
H709        H  0.15496618  0.97985601  0.20580096     0.18080
N710        N  0.09419031  0.97569523  0.19723868    -0.88640
H711        H  0.14935298  0.54476095  0.30697314     0.35460
H712        H  0.17813934  0.51896948  0.30402418     0.40550
H713        H  0.08275571  0.95574443  0.20391573     0.40170
H714        H  0.11022190  0.96895719  0.18053383     0.35060
C715        C  0.35733342  0.98610430  0.22642590    -0.26670
C716        C  0.34172941  0.00097890  0.25055601    -0.14740
C717        C  0.35861824  0.51551958  0.27429901     0.35890
C718        C  0.39080549  0.51480022  0.27311269    -0.26120
C719        C  0.40652374  0.50011075  0.24885790    -0.15360
C720        C  0.38962281  0.98564866  0.22513775     0.36970
N721        N  0.40503493  0.97032678  0.20003291    -0.89610
H722        H  0.34418540  0.97499426  0.20833727     0.18090
H723        H  0.40365416  0.52594309  0.29138971     0.18080
N724        N  0.34433812  0.53012459  0.30049009    -0.88640
H725        H  0.38909883  0.96129569  0.18442403     0.35460
H726        H  0.41707557  0.95160457  0.20905201     0.40550
H727        H  0.32053662  0.52735324  0.30067901     0.40170
H728        H  0.34866737  0.55369512  0.29916796     0.35060
C729        C  0.02752948  0.89249394  0.25263006    -0.26670
C730        C  0.99951032  0.90806662  0.24973194    -0.14740
C731        C  0.47201773  0.89145756  0.24701476     0.35890
C732        C  0.47310578  0.85917053  0.24691509    -0.26120
C733        C  0.00120874  0.84310845  0.24960899    -0.15360
C734        C  0.02885722  0.86020093  0.25236424     0.36970
N735        N  0.05819547  0.84500575  0.25496472    -0.89610
H736        H  0.04853336  0.90566814  0.25470521     0.18090
H737        H  0.45179450  0.84656308  0.24476116     0.18080
N738        N  0.44314900  0.90748423  0.24429057    -0.88640
H739        H  0.07568776  0.86094802  0.25896957     0.35460
H740        H  0.06305897  0.83486836  0.23361334     0.40550
H741        H  0.43947684  0.91975258  0.26475666     0.40170
H742        H  0.42501697  0.89191899  0.24220089     0.35060
C743        C  0.47189033  0.64154891  0.24820842    -0.26670
C744        C  0.00016585  0.65717976  0.24866005    -0.14740
C745        C  0.02785954  0.63967378  0.24917125     0.35890
C746        C  0.02641788  0.60743892  0.24957576    -0.26120
C747        C  0.49822650  0.59220427  0.24893584    -0.15360
C748        C  0.47054367  0.60936012  0.24834717     0.36970
N749        N  0.44076796  0.59507706  0.24765294    -0.89610
H750        H  0.45046036  0.65437803  0.24776256     0.18090
H751        H  0.04750144  0.59400391  0.25004110     0.18080
N752        N  0.05739556  0.65439646  0.24922193    -0.88640
H753        H  0.42932171  0.60122923  0.26795653     0.35460
H754        H  0.44238944  0.57113620  0.24745209     0.40550
H755        H  0.06035645  0.66430583  0.22759600     0.40170
H756        H  0.07511505  0.63821902  0.25154741     0.35060
O757        O  0.45520022  0.49978501  0.72333451    -0.74780
O758        O  0.04336313  0.99969607  0.72362860    -0.74810
O759        O  0.49942866  0.95577544  0.72369763    -0.74860
O760        O  0.99887744  0.54383336  0.72334927    -0.74910
O761        O  0.49886075  0.54445168  0.77472965    -0.74840
O762        O  0.99945538  0.95649599  0.77507416    -0.74820
O763        O  0.04324268  0.50041364  0.77484248    -0.74800
O764        O  0.45517602  0.00062182  0.77458955    -0.74860
Ni765      Ni  0.49917725  0.49977277  0.72167109     1.25410
Ni766      Ni  0.99925477  0.00051610  0.77665192     1.25360
C767        C  0.44058317  0.50010157  0.74890076     0.87400
C768        C  0.05797408  0.99979309  0.74922652     0.87330
C769        C  0.99940896  0.94176799  0.74947911     0.87360
C770        C  0.49861503  0.55850278  0.74899744     0.87530
O771        O  0.47444567  0.70631032  0.74848748    -0.74780
O772        O  0.47503242  0.79462754  0.74919867    -0.74810
O773        O  0.47541639  0.75063175  0.70493028    -0.74860
O774        O  0.47349903  0.75056029  0.79290797    -0.74910
O775        O  0.02473825  0.74965396  0.79410166    -0.74840
O776        O  0.02676203  0.74962248  0.70599147    -0.74820
O777        O  0.02615027  0.79368275  0.75038875    -0.74800
O778        O  0.02556292  0.70595664  0.74979447    -0.74860
Ni779      Ni  0.47274888  0.75054002  0.74885809     1.25410
Ni780      Ni  0.02760209  0.74974085  0.75011103     1.25360
C781        C  0.00006272  0.69147004  0.74896544     0.87400
C782        C  0.00082936  0.80881754  0.74976050     0.87330
C783        C  0.50136641  0.75013968  0.69107917     0.87360
C784        C  0.49875937  0.75004634  0.80802857     0.87530
O785        O  0.29296969  0.52638972  0.75034452    -0.74780
O786        O  0.20491502  0.52570780  0.75149919    -0.74810
O787        O  0.24956962  0.52521315  0.79475427    -0.74860
O788        O  0.24820029  0.52667827  0.70664106    -0.74910
O789        O  0.24997478  0.97536966  0.70543149    -0.74840
O790        O  0.24968820  0.97407458  0.79341058    -0.74820
O791        O  0.20574158  0.97440936  0.74918676    -0.74800
O792        O  0.29381976  0.97506736  0.74945155    -0.74860
Ni793      Ni  0.24890230  0.52783870  0.75080034     1.25410
Ni794      Ni  0.24982696  0.97290651  0.74932969     1.25360
C795        C  0.30789003  0.00083934  0.75015843     0.87400
C796        C  0.19098736  0.99994442  0.75064171     0.87330
C797        C  0.24975152  0.49936437  0.80872190     0.87360
C798        C  0.24874523  0.50120847  0.69161333     0.87530
O799        O  0.22290182  0.54394822  0.00066303    -0.74780
O800        O  0.22495862  0.95582068  0.50002473    -0.74810
O801        O  0.22416035  0.50001696  0.54434637    -0.74860
O802        O  0.22353058  0.99996952  0.95625184    -0.74910
O803        O  0.27489478  0.50058830  0.95598489    -0.74840
O804        O  0.27540590  0.00056537  0.54403198    -0.74820
O805        O  0.27610036  0.95667401  0.99959089    -0.74800
O806        O  0.27412031  0.54459800  0.50028002    -0.74860
Ni807      Ni  0.22208674  0.49988984  0.50032676     1.25410
Ni808      Ni  0.27690271  0.00065567  0.99997364     1.25360
C809        C  0.24817713  0.55893892  0.00050576     0.87400
C810        C  0.25090540  0.94161408  0.49964773     0.87330
C811        C  0.24988069  0.00020536  0.55874177     0.87360
C812        C  0.24914434  0.50037860  0.94173729     0.87530
O813        O  0.45680176  0.77458359  0.49937217    -0.74780
O814        O  0.04478721  0.77673178  0.99890729    -0.74810
O815        O  0.50023099  0.77440756  0.95497559    -0.74860
O816        O  0.00104920  0.77661950  0.54303527    -0.74910
O817        O  0.50270244  0.72553744  0.54380842    -0.74840
O818        O  0.00220325  0.72317139  0.95570407    -0.74820
O819        O  0.04632036  0.72542285  0.49931246    -0.74800
O820        O  0.45835986  0.72311246  0.00000861    -0.74860
Ni821      Ni  0.50068376  0.77727409  0.99901715     1.25410
Ni822      Ni  0.00239286  0.72261039  0.49975196     1.25360
C823        C  0.44290569  0.74868926  0.49972322     0.87400
C824        C  0.05998394  0.75144335  0.99912916     0.87330
C825        C  0.00104795  0.74844930  0.94085175     0.87360
C826        C  0.50202032  0.75144980  0.55808772     0.87530
O827        O  0.25212145  0.70688795  0.52699727    -0.74780
O828        O  0.25105886  0.79493673  0.52539542    -0.74810
O829        O  0.20780314  0.75081119  0.52691098    -0.74860
O830        O  0.29580480  0.75135414  0.52548032    -0.74910
O831        O  0.29513772  0.74913988  0.97413248    -0.74840
O832        O  0.20703431  0.74995898  0.97573730    -0.74820
O833        O  0.25121056  0.79359779  0.97403017    -0.74800
O834        O  0.25091797  0.70560151  0.97564404    -0.74860
Ni835      Ni  0.25178775  0.75101027  0.52802974     1.25410
Ni836      Ni  0.25105790  0.74952379  0.97304831     1.25360
C837        C  0.25131239  0.69186908  0.00155947     0.87400
C838        C  0.25078823  0.80865122  0.99945187     0.87330
C839        C  0.19279289  0.75055178  0.50158057     0.87360
C840        C  0.30985900  0.75043059  0.49960196     0.87530
C841        C  0.35917941  0.72346139  0.99112757    -0.26670
C842        C  0.34364257  0.75076175  0.49919457    -0.14740
C843        C  0.36060623  0.77724470  0.50725605     0.35890
C844        C  0.39278636  0.77570162  0.50730461    -0.26120
C845        C  0.40866889  0.74834704  0.49984916    -0.15360
C846        C  0.39146162  0.72153326  0.99198405     0.36970
N847        N  0.40650642  0.69291021  0.98452577    -0.89610
H848        H  0.34594480  0.70340594  0.98474196     0.18090
H849        H  0.40544590  0.79623389  0.51347346     0.18080
N850        N  0.34617854  0.80606912  0.51529383    -0.88640
H851        H  0.39050218  0.67658018  0.97713919     0.35460
H852        H  0.41589202  0.68433936  0.00489627     0.40550
H853        H  0.32225065  0.80478279  0.51446456     0.40170
H854        H  0.35259816  0.82214969  0.49877021     0.35060
C855        C  0.14288902  0.74270844  0.97471584    -0.26670
C856        C  0.15857740  0.75093233  0.50184012    -0.14740
C857        C  0.14126320  0.75999006  0.52810490     0.35890
C858        C  0.10896401  0.76078685  0.52635368    -0.25940
C859        C  0.09370646  0.75216879  0.99936391    -0.15360
C860        C  0.11064805  0.74318935  0.97327009     0.36970
N861        N  0.09497922  0.73472736  0.94538460    -0.89610
H862        H  0.15577610  0.73570977  0.95449289     0.18090
H863        H  0.09556483  0.76756150  0.54634124     0.18080
N864        N  0.15626833  0.76869203  0.55631171    -0.88640
H865        H  0.11075980  0.72848512  0.92826275     0.35460
H866        H  0.08336123  0.75423930  0.93746116     0.40550
H867        H  0.16551234  0.74869543  0.56588603     0.40170
H868        H  0.14025826  0.77706925  0.57229960     0.35060
C869        C  0.27625117  0.85791480  0.98913752    -0.26670
C870        C  0.24992948  0.84239892  0.49891092    -0.14740
C871        C  0.22379270  0.85939336  0.50855586     0.35890
C872        C  0.22493335  0.89157452  0.50860162    -0.26120
C873        C  0.25149671  0.90739267  0.49943138    -0.15360
C874        C  0.27762381  0.89019181  0.98975609     0.36970
N875        N  0.30532896  0.90529776  0.98023073    -0.89610
H876        H  0.29611868  0.84470426  0.98161888     0.18090
H877        H  0.20474576  0.90429856  0.51610051     0.18080
N878        N  0.19568800  0.84498748  0.51815526    -0.88640
H879        H  0.32120674  0.88934286  0.97146547     0.35460
H880        H  0.31551542  0.91466597  0.99994430     0.40550
H881        H  0.19703913  0.82107086  0.51675871     0.40170
H882        H  0.17841135  0.85160369  0.50279037     0.35060
C883        C  0.27624734  0.60865537  0.99785393    -0.26670
C884        C  0.24797552  0.59323089  0.00059809    -0.14740
C885        C  0.22068025  0.61092405  0.50379668     0.35890
C886        C  0.22246909  0.64321201  0.50474635    -0.26120
C887        C  0.25065104  0.65814793  0.00198262    -0.15360
C888        C  0.27781029  0.64086917  0.99850477     0.36970
N889        N  0.30684931  0.65616614  0.99549315    -0.89610
H890        H  0.29737826  0.59559463  0.99519934     0.18090
H891        H  0.20165858  0.65687736  0.50713127     0.18080
N892        N  0.19118584  0.59634012  0.50610562    -0.88640
H893        H  0.32469620  0.64017597  0.99266057     0.35460
H894        H  0.31111723  0.66780313  0.01618299     0.40550
H895        H  0.18631714  0.58652100  0.48463162     0.40170
H896        H  0.17385622  0.61263818  0.51019480     0.35060
C897        C  0.25404755  0.97292184  0.89228156    -0.26670
C898        C  0.24905553  0.50069118  0.90800365    -0.14740
C899        C  0.24459217  0.52806044  0.89127677     0.35890
C900        C  0.24509480  0.52684704  0.85908418    -0.26120
C901        C  0.24996376  0.49902652  0.84298098    -0.15360
C902        C  0.25479019  0.97169729  0.85996933     0.36970
N903        N  0.26063840  0.94285680  0.84460611    -0.89610
H904        H  0.25764142  0.95209328  0.90537224     0.18090
H905        H  0.24154318  0.54804255  0.84661585     0.18080
N906        N  0.24011476  0.55750587  0.90599089    -0.88640
H907        H  0.26242677  0.92500449  0.86048687     0.35460
H908        H  0.28214030  0.94442346  0.83397552     0.40550
H909        H  0.24080267  0.55599850  0.92991825     0.40170
H910        H  0.21808402  0.56533275  0.90024329     0.35060
C911        C  0.22522268  0.51413345  0.60858963    -0.26670
C912        C  0.24991693  0.50024264  0.59282007    -0.14740
C913        C  0.27396744  0.98641258  0.60979967     0.35890
C914        C  0.27291318  0.98720184  0.64210174    -0.26120
C915        C  0.24836474  0.50142536  0.65777288    -0.15360
C916        C  0.22406432  0.51489551  0.64078843     0.36970
N917        N  0.19730918  0.52833092  0.65513451    -0.89610
H918        H  0.20653226  0.52453757  0.59577429     0.18090
H919        H  0.29133791  0.97667015  0.65520532     0.18080
N920        N  0.29903683  0.97115068  0.59428703    -0.88640
H921        H  0.19750210  0.55190843  0.65066519     0.35460
H922        H  0.19741760  0.52577126  0.67895929     0.40550
H923        H  0.29001178  0.95214927  0.58256668     0.40170
H924        H  0.31489322  0.96251879  0.61016409     0.35060
C925        C  0.47844485  0.76625593  0.89174388    -0.26670
C926        C  0.00014624  0.74782139  0.90691903    -0.14740
C927        C  0.02086312  0.72964766  0.88953078     0.35890
C928        C  0.02009061  0.73114920  0.85728011    -0.26120
C929        C  0.49818045  0.74930419  0.84202685    -0.15360
C930        C  0.47671496  0.76666536  0.85945121     0.36970
N931        N  0.45396227  0.78541873  0.84445114    -0.89610
H932        H  0.46242624  0.78000358  0.90521031     0.18090
H933        H  0.03638890  0.71764421  0.84391112     0.18080
N934        N  0.04326792  0.71055776  0.90458776    -0.88640
H935        H  0.44159018  0.79841925  0.86061972     0.35460
H936        H  0.43803033  0.77064114  0.83419017     0.40550
H937        H  0.03150703  0.69254541  0.91502999     0.40170
H938        H  0.05806881  0.70034768  0.88848329     0.35060
C939        C  0.00768336  0.72428956  0.60816960    -0.26670
C940        C  0.50234450  0.75200445  0.59239223    -0.14740
C941        C  0.49689749  0.77929339  0.60976106     0.35890
C942        C  0.49638494  0.77794163  0.64205565    -0.26120
C943        C  0.50190513  0.75032219  0.65735778    -0.15360
C944        C  0.00753602  0.72321914  0.64046233     0.36970
N945        N  0.01294119  0.69474031  0.65620961    -0.89610
H946        H  0.01196173  0.70326220  0.59532182     0.18090
H947        H  0.49205502  0.79864643  0.65545301     0.18080
N948        N  0.49162220  0.80822857  0.59483242    -0.88640
H949        H  0.01687227  0.67687916  0.64043294     0.35460
H950        H  0.99282546  0.68922695  0.66809049     0.40550
H951        H  0.51249946  0.81498232  0.58513077     0.40170
H952        H  0.48583633  0.82530426  0.61091796     0.35060
C953        C  0.10774525  0.51030926  0.77540220    -0.26670
C954        C  0.09217116  0.99931466  0.74932875    -0.14740
C955        C  0.10940076  0.98795812  0.72398510     0.35890
C956        C  0.14170516  0.98834136  0.72524269    -0.26120
C957        C  0.15718142  0.99966978  0.75116518    -0.15360
C958        C  0.13995058  0.51064741  0.77668828     0.36970
N959        N  0.15425506  0.52130154  0.80462829    -0.89610
H960        H  0.09491214  0.51884658  0.79509097     0.18090
H961        H  0.15496630  0.97985577  0.70580162     0.18080
N962        N  0.09419047  0.97569529  0.69723888    -0.88640
H963        H  0.14935260  0.54476105  0.80697351     0.35460
H964        H  0.17813895  0.51896954  0.80402480     0.40550
H965        H  0.08275574  0.95574453  0.70391583     0.40170
H966        H  0.11022216  0.96895720  0.68053414     0.35060
C967        C  0.35733333  0.98610443  0.72642552    -0.26670
C968        C  0.34172930  0.00097898  0.75055564    -0.14740
C969        C  0.35861806  0.51551958  0.77429872     0.35890
C970        C  0.39080531  0.51480016  0.77311252    -0.26120
C971        C  0.40652362  0.50011072  0.74885775    -0.15360
C972        C  0.38962273  0.98564871  0.72513750     0.36970
N973        N  0.40503492  0.97032677  0.70003273    -0.89610
H974        H  0.34418534  0.97499442  0.70833685     0.18090
H975        H  0.40365393  0.52594297  0.79138960     0.18080
N976        N  0.34433785  0.53012460  0.80048975    -0.88640
H977        H  0.38909885  0.96129573  0.68442378     0.35460
H978        H  0.41707546  0.95160453  0.70905190     0.40550
H979        H  0.32053632  0.52735351  0.80067845     0.40170
H980        H  0.34866732  0.55369510  0.79916775     0.35060
C981        C  0.02752945  0.89249394  0.75263010    -0.26670
C982        C  0.99951028  0.90806661  0.74973192    -0.14740
C983        C  0.47201771  0.89145754  0.74701471     0.35890
C984        C  0.47310576  0.85917051  0.74691502    -0.26120
C985        C  0.00120870  0.84310840  0.74960887    -0.15360
C986        C  0.02885719  0.86020091  0.75236428     0.36970
N987        N  0.05819544  0.84500574  0.75496482    -0.89610
H988        H  0.04853332  0.90566815  0.75470530     0.18090
H989        H  0.45179449  0.84656307  0.74476101     0.18080
N990        N  0.44314897  0.90748419  0.74429046    -0.88640
H991        H  0.07568771  0.86094803  0.75896971     0.35460
H992        H  0.06305901  0.83486838  0.73361345     0.40550
H993        H  0.43947677  0.91975254  0.76475653     0.40170
H994        H  0.42501696  0.89191895  0.74220074     0.35060
C995        C  0.47189032  0.64154888  0.74820843    -0.26670
C996        C  0.00016581  0.65717971  0.74866021    -0.14740
C997        C  0.02785952  0.63967375  0.74917126     0.35890
C998        C  0.02641785  0.60743890  0.74957573    -0.26120
C999        C  0.49822647  0.59220425  0.74893582    -0.15360
C1000       C  0.47054364  0.60936011  0.74834715     0.36970
N1001       N  0.44076792  0.59507708  0.74765293    -0.89610
H1002       H  0.45046034  0.65437799  0.74776261     0.18090
H1003       H  0.04750141  0.59400387  0.75004106     0.18080
N1004       N  0.05739554  0.65439644  0.74922194    -0.88640
H1005       H  0.42932169  0.60122925  0.76795652     0.35460
H1006       H  0.44238938  0.57113622  0.74745206     0.40550
H1007       H  0.06035641  0.66430590  0.72759605     0.40170
H1008       H  0.07511504  0.63821900  0.75154737     0.35060
O1009       O  0.95535038  0.99978620  0.22331210    -0.74780
O1010       O  0.54321502  0.49969557  0.22361043    -0.74810
O1011       O  0.99928358  0.45577530  0.22369893    -0.74860
O1012       O  0.49902257  0.04383413  0.22335002    -0.74910
O1013       O  0.99899002  0.04445069  0.27473044    -0.74840
O1014       O  0.49933491  0.45649603  0.27507545    -0.74820
O1015       O  0.54337411  0.00040872  0.27486055    -0.74800
O1016       O  0.95504556  0.50061781  0.27461203    -0.74860
Ni1017     Ni  0.99932700  0.99977338  0.22166995     1.25410
Ni1018     Ni  0.49912628  0.50051668  0.27665304     1.25360
C1019       C  0.94072399  0.00010667  0.24887255     0.87400
C1020       C  0.55783440  0.49979692  0.24920372     0.87330
C1021       C  0.49928698  0.44176786  0.24948032     0.87360
C1022       C  0.99874145  0.05850248  0.24899879     0.87530
O1023       O  0.97445782  0.20629973  0.24848700    -0.74780
O1024       O  0.97502007  0.29461709  0.24919915    -0.74810
O1025       O  0.97541486  0.25062574  0.20493079    -0.74860
O1026       O  0.97350064  0.25054823  0.29290645    -0.74910
O1027       O  0.52474016  0.24966300  0.29410329    -0.74840
O1028       O  0.52676091  0.24963824  0.20599252    -0.74820
O1029       O  0.52613848  0.29369612  0.25038963    -0.74800
O1030       O  0.52557485  0.20597028  0.24979453    -0.74860
Ni1031     Ni  0.97274892  0.25052994  0.24885803     1.25410
Ni1032     Ni  0.52760244  0.24975406  0.25011185     1.25360
C1033       C  0.50008167  0.19147146  0.24896580     0.87400
C1034       C  0.50081053  0.30881891  0.24975978     0.87330
C1035       C  0.00136504  0.25014744  0.19108026     0.87360
C1036       C  0.99876022  0.25004296  0.30802822     0.87530
O1037       O  0.79310583  0.02639271  0.25032911    -0.74780
O1038       O  0.70505118  0.02571126  0.25151194    -0.74810
O1039       O  0.74971010  0.02521295  0.29475387    -0.74860
O1040       O  0.74831655  0.02668482  0.20664026    -0.74910
O1041       O  0.74985697  0.47536635  0.20543252    -0.74840
O1042       O  0.74954530  0.47407302  0.29341292    -0.74820
O1043       O  0.70560426  0.47440672  0.24917401    -0.74800
O1044       O  0.79368144  0.47506430  0.24946925    -0.74860
Ni1045     Ni  0.74903697  0.02784195  0.25079963     1.25410
Ni1046     Ni  0.74969081  0.47290375  0.24933169     1.25360
C1047       C  0.80775194  0.50083573  0.25018277     0.87400
C1048       C  0.69085002  0.49994217  0.25062350     0.87330
C1049       C  0.74987830  0.99936309  0.30871983     0.87360
C1050       C  0.74884526  0.00121537  0.19161156     0.87530
O1051       O  0.72298163  0.04396163  0.50066496    -0.74780
O1052       O  0.72494329  0.45580604  0.00002492    -0.74810
O1053       O  0.72411267  0.00000420  0.04435169    -0.74860
O1054       O  0.72358637  0.49998613  0.45625333    -0.74910
O1055       O  0.77493754  0.00057489  0.45598167    -0.74840
O1056       O  0.77536099  0.50057445  0.04403429    -0.74820
O1057       O  0.77612330  0.45666024  0.49959739    -0.74800
O1058       O  0.77403303  0.04460823  0.00027692    -0.74860
Ni1059     Ni  0.72203251  0.99987497  0.00032860     1.25410
Ni1060     Ni  0.77695752  0.50064103  0.49997880     1.25360
C1061       C  0.74826356  0.05894123  0.50050524     0.87400
C1062       C  0.75089731  0.44161250  0.99964822     0.87330
C1063       C  0.74983563  0.50020428  0.05874262     0.87360
C1064       C  0.74918529  0.00038018  0.44173626     0.87530
O1065       O  0.95680891  0.27422556  0.99939788    -0.74780
O1066       O  0.54481471  0.27674198  0.49891233    -0.74810
O1067       O  0.00026609  0.27455206  0.45495247    -0.74860
O1068       O  0.50104156  0.27648503  0.04302690    -0.74910
O1069       O  0.00281899  0.22540723  0.04382908    -0.74840
O1070       O  0.50211035  0.22331141  0.45571238    -0.74820
O1071       O  0.54642010  0.22541542  0.99930829    -0.74800
O1072       O  0.95827327  0.22347059  0.49999009    -0.74860
Ni1073     Ni  0.00070704  0.27744590  0.49900857     1.25410
Ni1074     Ni  0.50250313  0.22244290  0.99975928     1.25360
C1075       C  0.94295236  0.24831006  0.99975105     0.87400
C1076       C  0.55995143  0.25141588  0.49913556     0.87330
C1077       C  0.50103328  0.24857681  0.44084574     0.87360
C1078       C  0.00206636  0.25133364  0.05809292     0.87530
O1079       O  0.75210859  0.20688955  0.02699845    -0.74780
O1080       O  0.75108406  0.29493893  0.02539703    -0.74810
O1081       O  0.70781694  0.25082618  0.02691371    -0.74860
O1082       O  0.79583041  0.25134666  0.02547659    -0.74910
O1083       O  0.79512080  0.24915020  0.47413407    -0.74840
O1084       O  0.70702333  0.24994322  0.47573470    -0.74820
O1085       O  0.75118908  0.29359485  0.47402843    -0.74800
O1086       O  0.75093485  0.20559879  0.47564245    -0.74860
Ni1087     Ni  0.75180278  0.25101386  0.02803032     1.25410
Ni1088     Ni  0.75104788  0.24951993  0.47304662     1.25360
C1089       C  0.75135273  0.19186779  0.50155810     0.87400
C1090       C  0.75076575  0.30864909  0.49944982     0.87330
C1091       C  0.69280580  0.25056581  0.00158380     0.87360
C1092       C  0.80988574  0.25040783  0.99959665     0.87530
C1093       C  0.85921758  0.22363062  0.49114975    -0.26670
C1094       C  0.84368189  0.25064142  0.99918204    -0.14740
C1095       C  0.86073691  0.27706308  0.00724923     0.35890
C1096       C  0.89290626  0.27540102  0.00732649    -0.26120
C1097       C  0.90871181  0.24799564  0.99988946    -0.15360
C1098       C  0.89149860  0.22181872  0.49198112     0.36970
N1099       N  0.90662811  0.19322806  0.48456404    -0.89610
H1100       H  0.84604679  0.20352104  0.48479824     0.18090
H1101       H  0.90561974  0.29589849  0.01350040     0.18080
N1102       N  0.84641904  0.30594664  0.01526488    -0.88640
H1103       H  0.89067640  0.17683881  0.47719823     0.35460
H1104       H  0.91602510  0.18470820  0.50495155     0.40550
H1105       H  0.82248608  0.30474279  0.01444459     0.40170
H1106       H  0.85289318  0.32198760  0.99872318     0.35060
C1107       C  0.64287348  0.24268728  0.47471431    -0.26670
C1108       C  0.65859233  0.25095121  0.00184316    -0.14740
C1109       C  0.64128034  0.26001772  0.02810674     0.35890
C1110       C  0.60898393  0.26084930  0.02634568    -0.25940
C1111       C  0.59368247  0.25207829  0.49938175    -0.15360
C1112       C  0.61062984  0.24313608  0.47327663     0.36970
N1113       N  0.59496795  0.23470814  0.44537796    -0.89610
H1114       H  0.65576262  0.23571625  0.45448342     0.18090
H1115       H  0.59558363  0.26761564  0.04633533     0.18080
N1116       N  0.65628507  0.26869063  0.05632250    -0.88640
H1117       H  0.61075345  0.22850016  0.42824830     0.35460
H1118       H  0.58334378  0.25422802  0.43748256     0.40550
H1119       H  0.66551198  0.24868124  0.06588657     0.40170
H1120       H  0.64027769  0.27707103  0.07231157     0.35060
C1121       C  0.77623551  0.35790897  0.48912932    -0.26670
C1122       C  0.74994711  0.34239894  0.99891361    -0.14740
C1123       C  0.72380683  0.35938805  0.00855810     0.35890
C1124       C  0.72494278  0.39156834  0.00860685    -0.26120
C1125       C  0.75150206  0.40739158  0.99943481    -0.15360
C1126       C  0.77761737  0.39018498  0.48975137     0.36970
N1127       N  0.80532674  0.40528384  0.48022637    -0.89610
H1128       H  0.79609651  0.34469559  0.48160087     0.18090
H1129       H  0.70475289  0.40428789  0.01610717     0.18080
N1130       N  0.69570334  0.34497798  0.01815500    -0.88640
H1131       H  0.82119814  0.38932591  0.47145514     0.35460
H1132       H  0.81551910  0.41464295  0.49994121     0.40550
H1133       H  0.69705669  0.32106174  0.01675431     0.40170
H1134       H  0.67842597  0.35159520  0.00279129     0.35060
C1135       C  0.77633875  0.10866348  0.49786826    -0.26670
C1136       C  0.74806799  0.09323271  0.50060112    -0.14740
C1137       C  0.72058894  0.11093139  0.00380185     0.35890
C1138       C  0.72238925  0.14322189  0.00475209    -0.26120
C1139       C  0.75072196  0.15814850  0.50198316    -0.15360
C1140       C  0.77789123  0.14088017  0.49851622     0.36970
N1141       N  0.80692561  0.15618853  0.49551033    -0.89610
H1142       H  0.79747299  0.09560611  0.49522271     0.18090
H1143       H  0.70158471  0.15689491  0.00714461     0.18080
N1144       N  0.69109258  0.09635293  0.00612270    -0.88640
H1145       H  0.82477908  0.14020385  0.49268801     0.35460
H1146       H  0.81118269  0.16783320  0.51619813     0.40550
H1147       H  0.68621728  0.08652577  0.98465389     0.40170
H1148       H  0.67376734  0.11265623  0.01020955     0.35060
C1149       C  0.75408371  0.47292941  0.39227723    -0.26670
C1150       C  0.74909269  0.00068891  0.40800230    -0.14740
C1151       C  0.74462873  0.02805573  0.39127149     0.35890
C1152       C  0.74515735  0.02684184  0.35907903    -0.26120
C1153       C  0.75004756  0.99902243  0.34297960    -0.15360
C1154       C  0.75476976  0.47170290  0.35996374     0.36970
N1155       N  0.76061304  0.44286575  0.34459234    -0.89610
H1156       H  0.75770643  0.45210281  0.40536339     0.18090
H1157       H  0.74161240  0.04803666  0.34660769     0.18080
N1158       N  0.74012772  0.05749966  0.40598169    -0.88640
H1159       H  0.76244474  0.42501607  0.36047145     0.35460
H1160       H  0.78209431  0.44444852  0.33392278     0.40550
H1161       H  0.74079778  0.05599295  0.42990960     0.40170
H1162       H  0.71809768  0.06531631  0.40021757     0.35060
C1163       C  0.72521389  0.01411708  0.10861218    -0.26670
C1164       C  0.74989495  0.00023147  0.09281784    -0.14740
C1165       C  0.77391586  0.48642372  0.10980998     0.35890
C1166       C  0.77284505  0.48720826  0.14211275    -0.26120
C1167       C  0.74842265  0.00143075  0.15777184    -0.15360
C1168       C  0.72409565  0.01488826  0.14081330     0.36970
N1169       N  0.69735507  0.02832078  0.15518940    -0.89610
H1170       H  0.70650655  0.02451372  0.09581532     0.18090
H1171       H  0.79126425  0.47667731  0.15522463     0.18080
N1172       N  0.79899756  0.47117244  0.09430672    -0.88640
H1173       H  0.69753228  0.05189597  0.15070721     0.35460
H1174       H  0.69749905  0.02577455  0.17901554     0.40550
H1175       H  0.78998468  0.45216949  0.08257937     0.40170
H1176       H  0.81484942  0.46254404  0.11019019     0.35060
C1177       C  0.97843176  0.26629616  0.39172531    -0.26670
C1178       C  0.50014445  0.24789800  0.40691651    -0.14740
C1179       C  0.52085083  0.22968642  0.38954756     0.35890
C1180       C  0.52007983  0.23115685  0.35729375    -0.26120
C1181       C  0.99817516  0.24930705  0.34202574    -0.15360
C1182       C  0.97670434  0.26667608  0.35943559     0.36970
N1183       N  0.95395296  0.28541944  0.34442302    -0.89610
H1184       H  0.96240695  0.28004873  0.40517929     0.18090
H1185       H  0.53637516  0.21763730  0.34393534     0.18080
N1186       N  0.54323965  0.21059124  0.40462289    -0.88640
H1187       H  0.94158123  0.29843241  0.36058219     0.35460
H1188       H  0.93802035  0.27063538  0.33417298     0.40550
H1189       H  0.53146322  0.19260253  0.41508838     0.40170
H1190       H  0.55802895  0.20034915  0.38852722     0.35060
C1191       C  0.50769454  0.22424449  0.10819591    -0.26670
C1192       C  0.00236317  0.25193947  0.09239484    -0.14740
C1193       C  0.99690455  0.27924939  0.10973876     0.35890
C1194       C  0.99638556  0.27792492  0.14203631    -0.26120
C1195       C  0.00190462  0.25031604  0.15735947    -0.15360
C1196       C  0.50753834  0.22320148  0.14048463     0.36970
N1197       N  0.51294000  0.19473303  0.15624901    -0.89610
H1198       H  0.51197632  0.20320587  0.09536845     0.18090
H1199       H  0.99205228  0.29863941  0.15541801     0.18080
N1200       N  0.99162904  0.30817413  0.09478688    -0.88640
H1201       H  0.51688216  0.17686327  0.14048446     0.35460
H1202       H  0.49281833  0.18922345  0.16812119     0.40550
H1203       H  0.01250465  0.31491987  0.08507626     0.40170
H1204       H  0.98584561  0.32526338  0.11085966     0.35060
C1205       C  0.60788533  0.01030451  0.27543008    -0.26670
C1206       C  0.59203146  0.49932245  0.24929935    -0.14740
C1207       C  0.60926095  0.48796777  0.22395497     0.35890
C1208       C  0.64156630  0.48834672  0.22521502    -0.26120
C1209       C  0.65704268  0.49966956  0.25114083    -0.15360
C1210       C  0.64009128  0.01064830  0.27671247     0.36970
N1211       N  0.65439845  0.02130925  0.30464864    -0.89610
H1212       H  0.59505208  0.01884230  0.29511852     0.18090
H1213       H  0.65482786  0.47986199  0.20577396     0.18080
N1214       N  0.59404998  0.47571098  0.19720639    -0.88640
H1215       H  0.64949122  0.04476802  0.30699159     0.35460
H1216       H  0.67828274  0.01898279  0.30404084     0.40550
H1217       H  0.58261225  0.45576073  0.20387976     0.40170
H1218       H  0.61008177  0.46897308  0.18050167     0.35060
C1219       C  0.85719309  0.48609384  0.22646275    -0.26670
C1220       C  0.84158921  0.50097188  0.25058935    -0.14740
C1221       C  0.85876073  0.01553131  0.27426134     0.35890
C1222       C  0.89094712  0.01481508  0.27307179    -0.26120
C1223       C  0.90666499  0.00012372  0.24881888    -0.15360
C1224       C  0.88948138  0.48563300  0.22517856     0.36970
N1225       N  0.90489285  0.47030150  0.20007938    -0.89610
H1226       H  0.84404556  0.47498446  0.20837323     0.18090
H1227       H  0.90379585  0.02595967  0.29134780     0.18080
N1228       N  0.84448417  0.03013700  0.30045370    -0.88640
H1229       H  0.88895676  0.46126979  0.18447074     0.35460
H1230       H  0.91692782  0.45157905  0.20910527     0.40550
H1231       H  0.82068346  0.02736115  0.30064953     0.40170
H1232       H  0.84880915  0.05370815  0.29912754     0.35060
C1233       C  0.52745045  0.39251592  0.25263113    -0.26670
C1234       C  0.49941798  0.40806639  0.24973197    -0.14740
C1235       C  0.97194041  0.39143518  0.24700778     0.35890
C1236       C  0.97305487  0.35914989  0.24690674    -0.26120
C1237       C  0.50116942  0.34310961  0.24960524    -0.15360
C1238       C  0.52880446  0.36022310  0.25236307     0.36970
N1239       N  0.55815397  0.34504983  0.25496487    -0.89610
H1240       H  0.54844333  0.40570718  0.25470901     0.18090
H1241       H  0.95175361  0.34652640  0.24474876     0.18080
N1242       N  0.94305908  0.40743790  0.24427899    -0.88640
H1243       H  0.57563440  0.36100609  0.25896587     0.35460
H1244       H  0.56302395  0.33491177  0.23361528     0.40550
H1245       H  0.93937263  0.41970110  0.26474560     0.40170
H1246       H  0.92494048  0.39185775  0.24218391     0.35060
C1247       C  0.97194314  0.14152727  0.24821149    -0.26670
C1248       C  0.50020617  0.15718091  0.24866174    -0.14740
C1249       C  0.52791383  0.13969689  0.24917257     0.35890
C1250       C  0.52649941  0.10746163  0.24957881    -0.26120
C1251       C  0.99832206  0.09220361  0.24893877    -0.15360
C1252       C  0.97062394  0.10933630  0.24835057     0.36970
N1253       N  0.94086073  0.09502720  0.24765602    -0.89610
H1254       H  0.95050318  0.15433972  0.24776586     0.18090
H1255       H  0.54759420  0.09404437  0.25004395     0.18080
N1256       N  0.55743811  0.15444267  0.24921902    -0.88640
H1257       H  0.92940884  0.10116941  0.26795935     0.35460
H1258       H  0.94250360  0.07108775  0.24745560     0.40550
H1259       H  0.56039033  0.16434891  0.22759040     0.40170
H1260       H  0.57517063  0.13828011  0.25154810     0.35060
O1261       O  0.95535031  0.99978620  0.72331204    -0.74780
O1262       O  0.54321497  0.49969557  0.72361046    -0.74810
O1263       O  0.99928352  0.45577530  0.72369892    -0.74860
O1264       O  0.49902252  0.04383412  0.72335000    -0.74910
O1265       O  0.99898989  0.04445070  0.77473041    -0.74840
O1266       O  0.49933478  0.45649603  0.77507544    -0.74820
O1267       O  0.54337395  0.00040873  0.77486059    -0.74800
O1268       O  0.95504540  0.50061780  0.77461198    -0.74860
Ni1269     Ni  0.99932694  0.99977338  0.72166993     1.25410
Ni1270     Ni  0.49912613  0.50051668  0.77665302     1.25360
C1271       C  0.94072387  0.00010666  0.74887246     0.87400
C1272       C  0.55783429  0.49979695  0.74920379     0.87330
C1273       C  0.49928692  0.44176785  0.74948031     0.87360
C1274       C  0.99874139  0.05850248  0.74899877     0.87530
O1275       O  0.97445761  0.20629953  0.74848815    -0.74780
O1276       O  0.97501991  0.29461697  0.74919807    -0.74810
O1277       O  0.97541602  0.25062184  0.70493038    -0.74860
O1278       O  0.97349850  0.25055114  0.79290823    -0.74910
O1279       O  0.52473809  0.24966602  0.79410220    -0.74840
O1280       O  0.52676199  0.24963439  0.70599193    -0.74820
O1281       O  0.52613832  0.29369593  0.75038844    -0.74800
O1282       O  0.52557465  0.20597018  0.74979568    -0.74860
Ni1283     Ni  0.97274847  0.25052965  0.74885824     1.25410
Ni1284     Ni  0.52760193  0.24975380  0.75011154     1.25360
C1285       C  0.50008154  0.19147134  0.74896650     0.87400
C1286       C  0.50081043  0.30881879  0.74975914     0.87330
C1287       C  0.00136622  0.25014062  0.69107944     0.87360
C1288       C  0.99875904  0.25004764  0.80802886     0.87530
O1289       O  0.79310568  0.02639255  0.75032825    -0.74780
O1290       O  0.70505109  0.02571093  0.75151206    -0.74810
O1291       O  0.74971048  0.02521373  0.79475362    -0.74860
O1292       O  0.74831633  0.02668318  0.70663980    -0.74910
O1293       O  0.74985741  0.47536473  0.70543380    -0.74840
O1294       O  0.74954547  0.47407378  0.79341398    -0.74820
O1295       O  0.70560424  0.47440640  0.74917528    -0.74800
O1296       O  0.79368148  0.47506413  0.74947019    -0.74860
Ni1297     Ni  0.74903686  0.02784164  0.75079923     1.25410
Ni1298     Ni  0.74969087  0.47290342  0.74933288     1.25360
C1299       C  0.80775187  0.50083563  0.75018258     0.87400
C1300       C  0.69084996  0.49994186  0.75062426     0.87330
C1301       C  0.74987801  0.99936421  0.80872025     0.87360
C1302       C  0.74884712  0.00121324  0.69161195     0.87530
O1303       O  0.72289817  0.04394940  0.00066403    -0.74780
O1304       O  0.72496213  0.45582009  0.50002330    -0.74810
O1305       O  0.72415882  0.00001781  0.54434928    -0.74860
O1306       O  0.72353727  0.49996921  0.95625190    -0.74910
O1307       O  0.77488802  0.00058927  0.95598240    -0.74840
O1308       O  0.77540756  0.50056372  0.54403755    -0.74820
O1309       O  0.77610396  0.45667260  0.99959407    -0.74800
O1310       O  0.77411660  0.04459878  0.50027625    -0.74860
Ni1311     Ni  0.72208252  0.99989076  0.50032812     1.25410
Ni1312     Ni  0.77690696  0.50065437  0.99997748     1.25360
C1313       C  0.74817374  0.05893985  0.00050448     0.87400
C1314       C  0.75090862  0.44161316  0.49964840     0.87330
C1315       C  0.74987964  0.50020622  0.55874315     0.87360
C1316       C  0.74913718  0.00037848  0.94173596     0.87530
O1317       O  0.95680178  0.27458353  0.49937222    -0.74780
O1318       O  0.54478725  0.27673172  0.99890731    -0.74810
O1319       O  0.00023100  0.27440749  0.95497563    -0.74860
O1320       O  0.50104921  0.27661950  0.54303533    -0.74910
O1321       O  0.00270244  0.22553744  0.54380860    -0.74840
O1322       O  0.50220328  0.22317130  0.95570413    -0.74820
O1323       O  0.54632038  0.22542279  0.49931259    -0.74800
O1324       O  0.95835990  0.22311242  0.00000872    -0.74860
Ni1325     Ni  0.00068381  0.27727404  0.99901719     1.25410
Ni1326     Ni  0.50239287  0.22261033  0.49975209     1.25360
C1327       C  0.94290570  0.24868920  0.49972327     0.87400
C1328       C  0.55998398  0.25144329  0.99912920     0.87330
C1329       C  0.50104792  0.24844920  0.94085178     0.87360
C1330       C  0.00202030  0.25144984  0.55808786     0.87530
O1331       O  0.75212152  0.20688815  0.52699737    -0.74780
O1332       O  0.75105878  0.29493665  0.52539537    -0.74810
O1333       O  0.70780315  0.25081117  0.52691099    -0.74860
O1334       O  0.79580480  0.25135424  0.52548033    -0.74910
O1335       O  0.79513778  0.24913991  0.97413250    -0.74840
O1336       O  0.70703435  0.24995887  0.97573729    -0.74820
O1337       O  0.75121052  0.29359759  0.97403009    -0.74800
O1338       O  0.75091810  0.20560163  0.97564410    -0.74860
Ni1339     Ni  0.75178776  0.25101032  0.52802977     1.25410
Ni1340     Ni  0.75105795  0.24952374  0.97304829     1.25360
C1341       C  0.75131247  0.19186933  0.00155957     0.87400
C1342       C  0.75078819  0.30865099  0.99945176     0.87330
C1343       C  0.69279290  0.25055172  0.50158058     0.87360
C1344       C  0.80985901  0.25043064  0.49960197     0.87530
C1345       C  0.85917943  0.22346139  0.99112764    -0.26670
C1346       C  0.84364258  0.25076176  0.49919459    -0.14740
C1347       C  0.86060626  0.27724470  0.50725606     0.35890
C1348       C  0.89278639  0.27570159  0.50730460    -0.26120
C1349       C  0.90866890  0.24834700  0.49984917    -0.15360
C1350       C  0.89146164  0.22153324  0.99198411     0.36970
N1351       N  0.90650644  0.19291019  0.98452584    -0.89610
H1352       H  0.84594479  0.20340592  0.98474210     0.18090
H1353       H  0.90544594  0.29623386  0.51347345     0.18080
N1354       N  0.84617860  0.30606912  0.51529387    -0.88640
H1355       H  0.89050219  0.17658016  0.97713926     0.35460
H1356       H  0.91589204  0.18433934  0.00489634     0.40550
H1357       H  0.82225071  0.30478279  0.51446469     0.40170
H1358       H  0.85259817  0.32214968  0.49877021     0.35060
C1359       C  0.64288906  0.24270837  0.97471583    -0.26670
C1360       C  0.65857741  0.25093228  0.50184013    -0.14740
C1361       C  0.64126322  0.25999003  0.52810491     0.35890
C1362       C  0.60896403  0.26078682  0.52635371    -0.25940
C1363       C  0.59370650  0.25216874  0.99936393    -0.15360
C1364       C  0.61064808  0.24318927  0.97327009     0.36970
N1365       N  0.59497924  0.23472726  0.94538463    -0.89610
H1366       H  0.65577613  0.23570969  0.95449288     0.18090
H1367       H  0.59556485  0.26756148  0.54634126     0.18080
N1368       N  0.65626835  0.26869202  0.55631171    -0.88640
H1369       H  0.61075981  0.22848502  0.92826276     0.35460
H1370       H  0.58336124  0.25423919  0.93746117     0.40550
H1371       H  0.66551236  0.24869543  0.56588605     0.40170
H1372       H  0.64025829  0.27706926  0.57229960     0.35060
C1373       C  0.77625191  0.35791373  0.98913714    -0.26670
C1374       C  0.74992990  0.34239851  0.49891070    -0.14740
C1375       C  0.72379347  0.35939339  0.50855573     0.35890
C1376       C  0.72493493  0.39157448  0.50860164    -0.26120
C1377       C  0.75149884  0.40739192  0.49943161    -0.15360
C1378       C  0.77762535  0.39019061  0.98975589     0.36970
N1379       N  0.80533066  0.40529603  0.98023020    -0.89610
H1380       H  0.79611905  0.34470276  0.98161826     0.18090
H1381       H  0.70474768  0.40429902  0.51610064     0.18080
N1382       N  0.69568848  0.34498805  0.51815514    -0.88640
H1383       H  0.82120789  0.38934086  0.97146442     0.35460
H1384       H  0.81551774  0.41466371  0.99994369     0.40550
H1385       H  0.69703915  0.32107140  0.51675853     0.40170
H1386       H  0.67841194  0.35160462  0.50279029     0.35060
C1387       C  0.77624554  0.10865542  0.99785345    -0.26670
C1388       C  0.74797318  0.09323170  0.00059738    -0.14740
C1389       C  0.72067845  0.11092543  0.50379650     0.35890
C1390       C  0.72246815  0.14321325  0.50474652    -0.26120
C1391       C  0.75065052  0.15814839  0.00198276    -0.15360
C1392       C  0.77780938  0.14086912  0.99850471     0.36970
N1393       N  0.80684877  0.15616546  0.99549319    -0.89610
H1394       H  0.79737615  0.09559420  0.99519872     0.18090
H1395       H  0.70165800  0.15687912  0.50713166     0.18080
N1396       N  0.69118372  0.09634218  0.50610546    -0.88640
H1397       H  0.82469531  0.14017490  0.99266054     0.35460
H1398       H  0.81111696  0.16780227  0.01618308     0.40550
H1399       H  0.68631473  0.08652328  0.48463143     0.40170
H1400       H  0.67385450  0.11264061  0.51019483     0.35060
C1401       C  0.75404780  0.47292787  0.89227819    -0.26670
C1402       C  0.74905102  0.00068707  0.90800211    -0.14740
C1403       C  0.74460796  0.02805664  0.89127064     0.35890
C1404       C  0.74515176  0.02684411  0.85907840    -0.26120
C1405       C  0.75004176  0.99902408  0.84298001    -0.15360
C1406       C  0.75475407  0.47170355  0.85996508     0.36970
N1407       N  0.76060904  0.44286795  0.84459508    -0.89610
H1408       H  0.75766231  0.45210039  0.90536513     0.18090
H1409       H  0.74161868  0.04804044  0.84660644     0.18080
N1410       N  0.74011375  0.05750183  0.90598032    -0.88640
H1411       H  0.76243548  0.42501775  0.86047416     0.35460
H1412       H  0.78209532  0.44445447  0.83393614     0.40550
H1413       H  0.74076955  0.05599311  0.92990848     0.40170
H1414       H  0.71809078  0.06532985  0.90020475     0.35060
C1415       C  0.72524430  0.01412081  0.60860558    -0.26670
C1416       C  0.74992996  0.00023398  0.59281858    -0.14740
C1417       C  0.77394161  0.48642005  0.60981812     0.35890
C1418       C  0.77285940  0.48720291  0.64212054    -0.26120
C1419       C  0.74843329  0.00142749  0.65777216    -0.15360
C1420       C  0.72411341  0.01488802  0.64080626     0.36970
N1421       N  0.69736739  0.02831875  0.65517398    -0.89610
H1422       H  0.70654229  0.02452024  0.59580323     0.18090
H1423       H  0.79127260  0.47666870  0.65523815     0.18080
N1424       N  0.79902469  0.47116323  0.59432270    -0.88640
H1425       H  0.69754602  0.05189448  0.65069467     0.35460
H1426       H  0.69750287  0.02576962  0.67899989     0.40550
H1427       H  0.79001084  0.45216302  0.58259158     0.40170
H1428       H  0.81486876  0.46252999  0.61021124     0.35060
C1429       C  0.97844446  0.26625588  0.89174399    -0.26670
C1430       C  0.50014605  0.24782134  0.90691902    -0.14740
C1431       C  0.52086306  0.22964788  0.88953057     0.35890
C1432       C  0.52009063  0.23114986  0.85727987    -0.26120
C1433       C  0.99818029  0.24930488  0.84202694    -0.15360
C1434       C  0.97671462  0.26666557  0.85945131     0.36970
N1435       N  0.95396206  0.28541897  0.84445112    -0.89610
H1436       H  0.96242578  0.28000336  0.90521051     0.18090
H1437       H  0.53638903  0.21764532  0.84391055     0.18080
N1438       N  0.54326790  0.21055789  0.90458737    -0.88640
H1439       H  0.94158918  0.29841868  0.86061974     0.35460
H1440       H  0.93803083  0.27064146  0.83418893     0.40550
H1441       H  0.53150703  0.19254550  0.91502956     0.40170
H1442       H  0.55806870  0.20034789  0.88848278     0.35060
C1443       C  0.50768294  0.22428987  0.60817004    -0.26670
C1444       C  0.00234440  0.25200467  0.59239242    -0.14740
C1445       C  0.99689763  0.27929378  0.60976108     0.35890
C1446       C  0.99638532  0.27794233  0.64205571    -0.26120
C1447       C  0.00190502  0.25032292  0.65735804    -0.15360
C1448       C  0.50753549  0.22321969  0.64046280     0.36970
N1449       N  0.51294077  0.19474103  0.65621034    -0.89610
H1450       H  0.51196114  0.20326238  0.59532242     0.18090
H1451       H  0.99205560  0.29864727  0.65545293     0.18080
N1452       N  0.99162225  0.30822884  0.59483222    -0.88640
H1453       H  0.51687182  0.17687974  0.64043382     0.35460
H1454       H  0.49282510  0.18922775  0.66809136     0.40550
H1455       H  0.01249948  0.31498255  0.58513047     0.40170
H1456       H  0.98583638  0.32530464  0.61091765     0.35060
C1457       C  0.60788509  0.01030458  0.77543035    -0.26670
C1458       C  0.59203135  0.49932250  0.74929954    -0.14740
C1459       C  0.60926097  0.48796778  0.72395528     0.35890
C1460       C  0.64156632  0.48834657  0.72521556    -0.26120
C1461       C  0.65704258  0.49966930  0.75114149    -0.15360
C1462       C  0.64009104  0.01064823  0.77671296     0.36970
N1463       N  0.65439805  0.02130932  0.80464916    -0.89610
H1464       H  0.59505174  0.01884248  0.79511866     0.18090
H1465       H  0.65482798  0.47986180  0.70577459     0.18080
N1466       N  0.59405014  0.47571109  0.69720656    -0.88640
H1467       H  0.64949084  0.04476811  0.80699194     0.35460
H1468       H  0.67828235  0.01898284  0.80404147     0.40550
H1469       H  0.58261229  0.45576087  0.70387983     0.40170
H1470       H  0.61008203  0.46897315  0.68050196     0.35060
C1471       C  0.85719300  0.48609397  0.72646237    -0.26670
C1472       C  0.84158910  0.50097196  0.75058899    -0.14740
C1473       C  0.85876054  0.01553132  0.77426104     0.35890
C1474       C  0.89094693  0.01481503  0.77307161    -0.26120
C1475       C  0.90666486  0.00012370  0.74881872    -0.15360
C1476       C  0.88948130  0.48563305  0.72517832     0.36970
N1477       N  0.90489284  0.47030150  0.70007921    -0.89610
H1478       H  0.84404549  0.47498462  0.70837282     0.18090
H1479       H  0.90379561  0.02595956  0.79134768     0.18080
N1480       N  0.84448390  0.03013702  0.80045335    -0.88640
H1481       H  0.88895678  0.46126983  0.68447050     0.35460
H1482       H  0.91692770  0.45157900  0.70910516     0.40550
H1483       H  0.82068315  0.02736141  0.80064897     0.40170
H1484       H  0.84880909  0.05370814  0.79912733     0.35060
C1485       C  0.52745043  0.39251591  0.75263118    -0.26670
C1486       C  0.49941796  0.40806637  0.74973196    -0.14740
C1487       C  0.97194040  0.39143517  0.74700775     0.35890
C1488       C  0.97305486  0.35914988  0.74690670    -0.26120
C1489       C  0.50116940  0.34310955  0.74960514    -0.15360
C1490       C  0.52880445  0.36022307  0.75236311     0.36970
N1491       N  0.55815396  0.34504982  0.75496497    -0.89610
H1492       H  0.54844330  0.40570719  0.75470910     0.18090
H1493       H  0.95175360  0.34652639  0.74474864     0.18080
N1494       N  0.94305906  0.40743788  0.74427890    -0.88640
H1495       H  0.57563436  0.36100610  0.75896601     0.35460
H1496       H  0.56302400  0.33491178  0.73361539     0.40550
H1497       H  0.93937257  0.41970109  0.76474550     0.40170
H1498       H  0.92494047  0.39185772  0.74218379     0.35060
C1499       C  0.97194314  0.14152724  0.74821146    -0.26670
C1500       C  0.50020616  0.15718085  0.74866187    -0.14740
C1501       C  0.52791384  0.13969685  0.74917255     0.35890
C1502       C  0.52649940  0.10746160  0.74957875    -0.26120
C1503       C  0.99832204  0.09220361  0.74893875    -0.15360
C1504       C  0.97062393  0.10933630  0.74835052     0.36970
N1505       N  0.94086071  0.09502722  0.74765597    -0.89610
H1506       H  0.95050317  0.15433968  0.74776586     0.18090
H1507       H  0.54759419  0.09404433  0.75004389     0.18080
N1508       N  0.55743812  0.15444265  0.74921899    -0.88640
H1509       H  0.92940882  0.10116945  0.76795930     0.35460
H1510       H  0.94250356  0.07108777  0.74745555     0.40550
H1511       H  0.56039031  0.16434896  0.72759040     0.40170
H1512       H  0.57517064  0.13828008  0.75154802     0.35060
O1513       O  0.95520029  0.49978502  0.22333457    -0.74780
O1514       O  0.54336318  0.99969608  0.22362857    -0.74810
O1515       O  0.99942872  0.95577544  0.22369764    -0.74860
O1516       O  0.49887751  0.54383336  0.22334929    -0.74910
O1517       O  0.99886089  0.54445168  0.27472968    -0.74840
O1518       O  0.49945552  0.95649600  0.27507418    -0.74820
O1519       O  0.54324285  0.50041362  0.27484245    -0.74800
O1520       O  0.95517618  0.00062182  0.27458962    -0.74860
Ni1521     Ni  0.99917731  0.49977278  0.22167110     1.25410
Ni1522     Ni  0.49925493  0.00051610  0.27665194     1.25360
C1523       C  0.94058329  0.50010158  0.24890084     0.87400
C1524       C  0.55797419  0.99979307  0.24922646     0.87330
C1525       C  0.49940903  0.94176800  0.24947913     0.87360
C1526       C  0.99861509  0.55850278  0.24899747     0.87530
O1527       O  0.97444588  0.70631053  0.24848632    -0.74780
O1528       O  0.97503258  0.79462766  0.24919971    -0.74810
O1529       O  0.97541523  0.75063563  0.20493066    -0.74860
O1530       O  0.97350116  0.75055739  0.29290617    -0.74910
O1531       O  0.52474034  0.74965089  0.29410278    -0.74840
O1532       O  0.52676101  0.74962640  0.20599210    -0.74820
O1533       O  0.52615045  0.79368295  0.25039003    -0.74800
O1534       O  0.52556316  0.70595675  0.24979329    -0.74860
Ni1535     Ni  0.97274933  0.75054032  0.24885786     1.25410
Ni1536     Ni  0.52760263  0.74974111  0.25011137     1.25360
C1537       C  0.50006288  0.69147016  0.24896470     0.87400
C1538       C  0.50082949  0.80881766  0.24976122     0.87330
C1539       C  0.00136522  0.75014650  0.19107997     0.87360
C1540       C  0.99876054  0.75004169  0.30802790     0.87530
O1541       O  0.79296984  0.52638988  0.25034539    -0.74780
O1542       O  0.70491511  0.52570809  0.25149910    -0.74810
O1543       O  0.74956924  0.52521234  0.29475454    -0.74860
O1544       O  0.74820051  0.52667988  0.20664155    -0.74910
O1545       O  0.74997435  0.97537131  0.20543019    -0.74840
O1546       O  0.74968802  0.97407384  0.29340949    -0.74820
O1547       O  0.70574159  0.97440972  0.24918546    -0.74800
O1548       O  0.79381971  0.97506755  0.24945060    -0.74860
Ni1549     Ni  0.74890240  0.52783900  0.25080076     1.25410
Ni1550     Ni  0.74982689  0.97290686  0.24932848     1.25360
C1551       C  0.80789011  0.00083945  0.25015861     0.87400
C1552       C  0.69098743  0.99994477  0.25064093     0.87330
C1553       C  0.74975183  0.49936322  0.30872150     0.87360
C1554       C  0.74874336  0.50121058  0.19161295     0.87530
O1555       O  0.72298532  0.54396045  0.50066395    -0.74780
O1556       O  0.72493980  0.95580663  0.00002635    -0.74810
O1557       O  0.72411417  0.50000335  0.04434878    -0.74860
O1558       O  0.72357961  0.99998644  0.45625328    -0.74910
O1559       O  0.77494435  0.50057390  0.45598416    -0.74840
O1560       O  0.77535936  0.00057611  0.04402873    -0.74820
O1561       O  0.77611966  0.95666165  0.49959420    -0.74800
O1562       O  0.77403667  0.54460745  0.00028070    -0.74860
Ni1563     Ni  0.72203667  0.49987404  0.00032725     1.25410
Ni1564     Ni  0.77695321  0.00064235  0.49997496     1.25360
C1565       C  0.74826700  0.55894030  0.50050651     0.87400
C1566       C  0.75089412  0.94161342  0.99964757     0.87330
C1567       C  0.74983671  0.00020343  0.05874124     0.87360
C1568       C  0.74919249  0.50038028  0.44173759     0.87530
O1569       O  0.95680886  0.77422560  0.99939781    -0.74780
O1570       O  0.54481470  0.77674203  0.49891231    -0.74810
O1571       O  0.00026609  0.77455220  0.45495243    -0.74860
O1572       O  0.50104150  0.77648504  0.04302686    -0.74910
O1573       O  0.00281895  0.72540721  0.04382886    -0.74840
O1574       O  0.50211034  0.72331147  0.45571236    -0.74820
O1575       O  0.54642006  0.72541546  0.99930822    -0.74800
O1576       O  0.95827326  0.72347066  0.49998996    -0.74860
Ni1577     Ni  0.00070703  0.77744598  0.49900852     1.25410
Ni1578     Ni  0.50250309  0.72244294  0.99975919     1.25360
C1579       C  0.94295232  0.74831010  0.99975096     0.87400
C1580       C  0.55995141  0.75141592  0.49913553     0.87330
C1581       C  0.50103333  0.74857686  0.44084573     0.87360
C1582       C  0.00206634  0.75133357  0.05809276     0.87530
O1583       O  0.75210848  0.70688935  0.02699835    -0.74780
O1584       O  0.75108412  0.79493901  0.02539709    -0.74810
O1585       O  0.70781691  0.75082621  0.02691372    -0.74860
O1586       O  0.79583038  0.75134654  0.02547657    -0.74910
O1587       O  0.79512078  0.74915019  0.47413407    -0.74840
O1588       O  0.70702332  0.74994332  0.47573471    -0.74820
O1589       O  0.75118914  0.79359506  0.47402853    -0.74800
O1590       O  0.75093477  0.70559867  0.47564239    -0.74860
Ni1591     Ni  0.75180275  0.75101380  0.02803030     1.25410
Ni1592     Ni  0.75104786  0.74951998  0.47304664     1.25360
C1593       C  0.75135269  0.69186754  0.50155800     0.87400
C1594       C  0.75076581  0.80864931  0.49944994     0.87330
C1595       C  0.69280576  0.75056588  0.00158382     0.87360
C1596       C  0.80988570  0.75040776  0.99959662     0.87530
C1597       C  0.85921759  0.72363064  0.49114973    -0.26670
C1598       C  0.84368185  0.75064139  0.99918200    -0.14740
C1599       C  0.86073684  0.77706306  0.00724919     0.35890
C1600       C  0.89290620  0.77540102  0.00732646    -0.26120
C1601       C  0.90871177  0.74799566  0.99988940    -0.15360
C1602       C  0.89149861  0.72181875  0.49198110     0.36970
N1603       N  0.90662813  0.69322810  0.48456404    -0.89610
H1604       H  0.84604683  0.70352107  0.48479816     0.18090
H1605       H  0.90561966  0.79589850  0.01350037     0.18080
N1606       N  0.84641895  0.80594662  0.01526482    -0.88640
H1607       H  0.89067643  0.67683883  0.47719824     0.35460
H1608       H  0.91602512  0.68470825  0.50495156     0.40550
H1609       H  0.82248599  0.80474277  0.01444445     0.40170
H1610       H  0.85289314  0.82198759  0.99872315     0.35060
C1611       C  0.64287348  0.74268731  0.47471432    -0.26670
C1612       C  0.65859229  0.75095126  0.00184318    -0.14740
C1613       C  0.64128030  0.76001773  0.02810678     0.35890
C1614       C  0.60898388  0.76084931  0.02634571    -0.25940
C1615       C  0.59368246  0.75207832  0.49938174    -0.15360
C1616       C  0.61062983  0.74313611  0.47327663     0.36970
N1617       N  0.59496796  0.73470817  0.44537795    -0.89610
H1618       H  0.65576262  0.73571629  0.45448343     0.18090
H1619       H  0.59558357  0.76761562  0.04633537     0.18080
N1620       N  0.65628501  0.76869060  0.05632255    -0.88640
H1621       H  0.61075347  0.72850018  0.42824830     0.35460
H1622       H  0.58334380  0.75422805  0.43748255     0.40550
H1623       H  0.66551195  0.74868120  0.06588658     0.40170
H1624       H  0.64027763  0.77707095  0.07231164     0.35060
C1625       C  0.77623477  0.85791005  0.48912972    -0.26670
C1626       C  0.74994668  0.84239935  0.99891384    -0.14740
C1627       C  0.72380606  0.85938802  0.00855825     0.35890
C1628       C  0.72494120  0.89156838  0.00860685    -0.26120
C1629       C  0.75149994  0.90739233  0.99943459    -0.15360
C1630       C  0.77761581  0.89018619  0.48975157     0.36970
N1631       N  0.80532502  0.90528560  0.48022692    -0.89610
H1632       H  0.79609615  0.84469711  0.48160151     0.18090
H1633       H  0.70475097  0.90428744  0.01610706     0.18080
N1634       N  0.69570285  0.84497742  0.01815514    -0.88640
H1635       H  0.82119698  0.88932794  0.47145621     0.35460
H1636       H  0.81551675  0.91464524  0.49994183     0.40550
H1637       H  0.69705666  0.82106121  0.01675450     0.40170
H1638       H  0.67842538  0.85159428  0.00279140     0.35060
C1639       C  0.77634060  0.60866343  0.49786872    -0.26670
C1640       C  0.74807038  0.59323190  0.50060182    -0.14740
C1641       C  0.72059068  0.61093001  0.00380202     0.35890
C1642       C  0.72239013  0.64322066  0.00475191    -0.26120
C1643       C  0.75072253  0.65814804  0.50198301    -0.15360
C1644       C  0.77789219  0.64088021  0.49851628     0.36970
N1645       N  0.80692619  0.65618921  0.49551028    -0.89610
H1646       H  0.79747514  0.59560654  0.49522332     0.18090
H1647       H  0.70158522  0.65689316  0.00714421     0.18080
N1648       N  0.69109463  0.59635088  0.00612285    -0.88640
H1649       H  0.82478002  0.64020492  0.49268804     0.35460
H1650       H  0.81118300  0.66783405  0.51619804     0.40550
H1651       H  0.68621963  0.58652350  0.98465406     0.40170
H1652       H  0.67376899  0.61265381  0.01020950     0.35060
C1653       C  0.75408334  0.97292337  0.39228061    -0.26670
C1654       C  0.74909724  0.50069300  0.40800383    -0.14740
C1655       C  0.74461295  0.52805950  0.39127762     0.35890
C1656       C  0.74510040  0.52684474  0.35908482    -0.26120
C1657       C  0.74996958  0.49902484  0.34298059    -0.15360
C1658       C  0.75480578  0.97169663  0.35996799     0.36970
N1659       N  0.76064225  0.94285460  0.34460337    -0.89610
H1660       H  0.75768537  0.95209568  0.40537052     0.18090
H1661       H  0.74153689  0.54803874  0.34661713     0.18080
N1662       N  0.74012873  0.55750368  0.40599226    -0.88640
H1663       H  0.76243582  0.92500282  0.36048417     0.35460
H1664       H  0.78213918  0.94441747  0.33396217     0.40550
H1665       H  0.74083092  0.55599832  0.42991935     0.40170
H1666       H  0.71809092  0.56531917  0.40025613     0.35060
C1667       C  0.72519224  0.51412972  0.10859624    -0.26670
C1668       C  0.74988189  0.50024012  0.09281932    -0.14740
C1669       C  0.77394171  0.98641628  0.10979154     0.35890
C1670       C  0.77289884  0.98720722  0.14209394    -0.26120
C1671       C  0.74835408  0.50142860  0.15777258    -0.15360
C1672       C  0.72404654  0.51489575  0.14079548     0.36970
N1673       N  0.69729683  0.52833296  0.15514995    -0.89610
H1674       H  0.70649648  0.52453106  0.09578638     0.18090
H1675       H  0.79132957  0.97667879  0.15519179     0.18080
N1676       N  0.79900973  0.97115992  0.09427107    -0.88640
H1677       H  0.69748835  0.55190993  0.15067776     0.35460
H1678       H  0.69741375  0.52577618  0.17897497     0.40550
H1679       H  0.78998565  0.95215577  0.08255449     0.40170
H1680       H  0.81487390  0.96253287  0.11014305     0.35060
C1681       C  0.97843214  0.76629627  0.39172517    -0.26670
C1682       C  0.50014465  0.74789798  0.40691654    -0.14740
C1683       C  0.52085088  0.72968612  0.38954779     0.35890
C1684       C  0.52007980  0.73115609  0.35729400    -0.26120
C1685       C  0.99817531  0.74930641  0.34202563    -0.15360
C1686       C  0.97670466  0.76667591  0.35943546     0.36970
N1687       N  0.95395313  0.78541920  0.34442301    -0.89610
H1688       H  0.96240740  0.78004901  0.40517906     0.18090
H1689       H  0.53637501  0.71763610  0.34393593     0.18080
N1690       N  0.54323966  0.71059102  0.40462329    -0.88640
H1691       H  0.94158218  0.79843299  0.36058213     0.35460
H1692       H  0.93801982  0.77063505  0.33417420     0.40550
H1693       H  0.53146320  0.69260236  0.41508884     0.40170
H1694       H  0.55802903  0.70034884  0.38852775     0.35060
C1695       C  0.50769477  0.72424418  0.10819550    -0.26670
C1696       C  0.00236323  0.75193922  0.09239463    -0.14740
C1697       C  0.99690442  0.77924898  0.10973872     0.35890
C1698       C  0.99638520  0.77792420  0.14203623    -0.26120
C1699       C  0.00190472  0.75031529  0.15735919    -0.15360
C1700       C  0.50753870  0.72320095  0.14048419     0.36970
N1701       N  0.51294006  0.69473229  0.15624832    -0.89610
H1702       H  0.51197654  0.70320566  0.09536789     0.18090
H1703       H  0.99205176  0.79863857  0.15541808     0.18080
N1704       N  0.99162903  0.80817386  0.09478705    -0.88640
H1705       H  0.51688210  0.67686264  0.14048362     0.35460
H1706       H  0.49281830  0.68922279  0.16812038     0.40550
H1707       H  0.01250468  0.81491960  0.08507653     0.40170
H1708       H  0.98584563  0.82526300  0.11085996     0.35060
C1709       C  0.60774548  0.51030918  0.27540195    -0.26670
C1710       C  0.59217127  0.99931463  0.24932855    -0.14740
C1711       C  0.60940074  0.98795816  0.22398478     0.35890
C1712       C  0.64170514  0.98834156  0.22524212    -0.26120
C1713       C  0.65718151  0.99967008  0.25116450    -0.15360
C1714       C  0.63995081  0.51064745  0.27668780     0.36970
N1715       N  0.65425546  0.52130146  0.30462778    -0.89610
H1716       H  0.59491248  0.51884638  0.29509083     0.18090
H1717       H  0.65496618  0.97985603  0.20580097     0.18080
N1718       N  0.59419031  0.97569524  0.19723868    -0.88640
H1719       H  0.64935298  0.54476094  0.30697315     0.35460
H1720       H  0.67813934  0.51896947  0.30402418     0.40550
H1721       H  0.58275571  0.95574444  0.20391573     0.40170
H1722       H  0.61022190  0.96895720  0.18053383     0.35060
C1723       C  0.85733342  0.98610431  0.22642590    -0.26670
C1724       C  0.84172941  0.00097891  0.25055601    -0.14740
C1725       C  0.85861824  0.51551958  0.27429901     0.35890
C1726       C  0.89080550  0.51480022  0.27311269    -0.26120
C1727       C  0.90652374  0.50011074  0.24885790    -0.15360
C1728       C  0.88962281  0.98564866  0.22513775     0.36970
N1729       N  0.90503493  0.97032678  0.20003291    -0.89610
H1730       H  0.84418540  0.97499427  0.20833727     0.18090
H1731       H  0.90365416  0.52594309  0.29138970     0.18080
N1732       N  0.84433813  0.53012459  0.30049008    -0.88640
H1733       H  0.88909882  0.96129569  0.18442402     0.35460
H1734       H  0.91707557  0.95160457  0.20905201     0.40550
H1735       H  0.82053663  0.52735324  0.30067900     0.40170
H1736       H  0.84866737  0.55369512  0.29916795     0.35060
C1737       C  0.52752949  0.89249395  0.25263008    -0.26670
C1738       C  0.49951032  0.90806663  0.24973195    -0.14740
C1739       C  0.97201773  0.89145755  0.24701474     0.35890
C1740       C  0.97310577  0.85917052  0.24691505    -0.26120
C1741       C  0.50120874  0.84310846  0.24960904    -0.15360
C1742       C  0.52885722  0.86020094  0.25236428     0.36970
N1743       N  0.55819548  0.84500576  0.25496476    -0.89610
H1744       H  0.54853337  0.90566815  0.25470522     0.18090
H1745       H  0.95179450  0.84656308  0.24476111     0.18080
N1746       N  0.94314899  0.90748422  0.24429056    -0.88640
H1747       H  0.57568777  0.86094804  0.25896960     0.35460
H1748       H  0.56305898  0.83486836  0.23361339     0.40550
H1749       H  0.93947684  0.91975256  0.26475665     0.40170
H1750       H  0.92501697  0.89191899  0.24220087     0.35060
C1751       C  0.97189032  0.64154890  0.24820845    -0.26670
C1752       C  0.50016586  0.65717977  0.24866002    -0.14740
C1753       C  0.52785955  0.63967378  0.24917123     0.35890
C1754       C  0.52641789  0.60743893  0.24957574    -0.26120
C1755       C  0.99822649  0.59220426  0.24893586    -0.15360
C1756       C  0.97054366  0.60936011  0.24834719     0.36970
N1757       N  0.94076795  0.59507705  0.24765297    -0.89610
H1758       H  0.95046035  0.65437802  0.24776259     0.18090
H1759       H  0.54750145  0.59400391  0.25004108     0.18080
N1760       N  0.55739557  0.65439647  0.24922190    -0.88640
H1761       H  0.92932171  0.60122921  0.26795656     0.35460
H1762       H  0.94238943  0.57113619  0.24745212     0.40550
H1763       H  0.56035646  0.66430584  0.22759597     0.40170
H1764       H  0.57511506  0.63821903  0.25154738     0.35060
O1765       O  0.95520021  0.49978501  0.72333451    -0.74780
O1766       O  0.54336312  0.99969606  0.72362860    -0.74810
O1767       O  0.99942866  0.95577544  0.72369762    -0.74860
O1768       O  0.49887745  0.54383335  0.72334927    -0.74910
O1769       O  0.99886074  0.54445168  0.77472966    -0.74840
O1770       O  0.49945538  0.95649600  0.77507417    -0.74820
O1771       O  0.54324269  0.50041363  0.77484248    -0.74800
O1772       O  0.95517602  0.00062182  0.77458955    -0.74860
Ni1773     Ni  0.99917724  0.49977278  0.72167109     1.25410
Ni1774     Ni  0.49925477  0.00051610  0.77665192     1.25360
C1775       C  0.94058317  0.50010156  0.74890076     0.87400
C1776       C  0.55797408  0.99979309  0.74922652     0.87330
C1777       C  0.49940896  0.94176799  0.74947912     0.87360
C1778       C  0.99861501  0.55850278  0.74899745     0.87530
O1779       O  0.97444565  0.70631032  0.74848749    -0.74780
O1780       O  0.97503242  0.79462754  0.74919862    -0.74810
O1781       O  0.97541637  0.75063172  0.70493026    -0.74860
O1782       O  0.97349903  0.75056032  0.79290795    -0.74910
O1783       O  0.52473826  0.74965392  0.79410169    -0.74840
O1784       O  0.52676205  0.74962253  0.70599150    -0.74820
O1785       O  0.52615027  0.79368275  0.75038882    -0.74800
O1786       O  0.52556294  0.70595665  0.74979445    -0.74860
Ni1787     Ni  0.97274887  0.75054002  0.74885808     1.25410
Ni1788     Ni  0.52760210  0.74974085  0.75011106     1.25360
C1789       C  0.50006274  0.69147004  0.74896542     0.87400
C1790       C  0.50082936  0.80881754  0.74976057     0.87330
C1791       C  0.00136638  0.75013963  0.69107914     0.87360
C1792       C  0.99875937  0.75004639  0.80802855     0.87530
O1793       O  0.79296969  0.52638973  0.75034452    -0.74780
O1794       O  0.70491502  0.52570780  0.75149920    -0.74810
O1795       O  0.74956961  0.52521315  0.79475427    -0.74860
O1796       O  0.74820029  0.52667828  0.70664106    -0.74910
O1797       O  0.74997478  0.97536966  0.70543149    -0.74840
O1798       O  0.74968820  0.97407458  0.79341058    -0.74820
O1799       O  0.70574158  0.97440936  0.74918676    -0.74800
O1800       O  0.79381976  0.97506736  0.74945155    -0.74860
Ni1801     Ni  0.74890230  0.52783871  0.75080035     1.25410
Ni1802     Ni  0.74982696  0.97290651  0.74932969     1.25360
C1803       C  0.80789003  0.00083934  0.75015843     0.87400
C1804       C  0.69098736  0.99994443  0.75064171     0.87330
C1805       C  0.74975151  0.49936436  0.80872190     0.87360
C1806       C  0.74874523  0.50120848  0.69161333     0.87530
O1807       O  0.72290178  0.54394822  0.00066304    -0.74780
O1808       O  0.72495859  0.95582068  0.50002474    -0.74810
O1809       O  0.72416036  0.50001696  0.54434637    -0.74860
O1810       O  0.72353060  0.99996952  0.95625184    -0.74910
O1811       O  0.77489474  0.50058829  0.95598488    -0.74840
O1812       O  0.77540588  0.00056538  0.54403197    -0.74820
O1813       O  0.77610037  0.95667401  0.99959089    -0.74800
O1814       O  0.77412032  0.54459800  0.50028003    -0.74860
Ni1815     Ni  0.72208676  0.49988984  0.50032676     1.25410
Ni1816     Ni  0.77690272  0.00065567  0.99997365     1.25360
C1817       C  0.74817710  0.55893892  0.00050575     0.87400
C1818       C  0.75090537  0.94161408  0.49964774     0.87330
C1819       C  0.74988067  0.00020537  0.55874177     0.87360
C1820       C  0.74914429  0.50037859  0.94173729     0.87530
O1821       O  0.95680176  0.77458360  0.49937217    -0.74780
O1822       O  0.54478721  0.77673177  0.99890730    -0.74810
O1823       O  0.00023099  0.77440760  0.95497558    -0.74860
O1824       O  0.50104919  0.77661951  0.54303528    -0.74910
O1825       O  0.00270245  0.72553743  0.54380839    -0.74840
O1826       O  0.50220325  0.72317136  0.95570410    -0.74820
O1827       O  0.54632036  0.72542284  0.49931250    -0.74800
O1828       O  0.95835987  0.72311247  0.00000858    -0.74860
Ni1829     Ni  0.00068376  0.77727410  0.99901714     1.25410
Ni1830     Ni  0.50239285  0.72261037  0.49975200     1.25360
C1831       C  0.94290569  0.74868927  0.49972321     0.87400
C1832       C  0.55998393  0.75144334  0.99912918     0.87330
C1833       C  0.50104795  0.74844926  0.94085177     0.87360
C1834       C  0.00202032  0.75144978  0.55808769     0.87530
O1835       O  0.75212145  0.70688795  0.52699728    -0.74780
O1836       O  0.75105885  0.79493673  0.52539544    -0.74810
O1837       O  0.70780314  0.75081118  0.52691099    -0.74860
O1838       O  0.79580480  0.75135414  0.52548033    -0.74910
O1839       O  0.79513772  0.74913988  0.97413248    -0.74840
O1840       O  0.70703430  0.74995899  0.97573731    -0.74820
O1841       O  0.75121056  0.79359779  0.97403017    -0.74800
O1842       O  0.75091796  0.70560151  0.97564403    -0.74860
Ni1843     Ni  0.75178775  0.75101026  0.52802975     1.25410
Ni1844     Ni  0.75105789  0.74952379  0.97304831     1.25360
C1845       C  0.75131237  0.69186908  0.00155947     0.87400
C1846       C  0.75078824  0.80865122  0.99945187     0.87330
C1847       C  0.69279289  0.75055177  0.50158059     0.87360
C1848       C  0.80985900  0.75043059  0.49960197     0.87530
C1849       C  0.85917941  0.72346138  0.99112757    -0.26670
C1850       C  0.84364257  0.75076176  0.49919458    -0.14740
C1851       C  0.86060623  0.77724471  0.50725605     0.35890
C1852       C  0.89278636  0.77570163  0.50730460    -0.26120
C1853       C  0.90866889  0.74834705  0.49984915    -0.15360
C1854       C  0.89146162  0.72153325  0.99198404     0.36970
N1855       N  0.90650642  0.69291020  0.98452578    -0.89610
H1856       H  0.84594480  0.70340593  0.98474197     0.18090
H1857       H  0.90544590  0.79623390  0.51347345     0.18080
N1858       N  0.84617854  0.80606913  0.51529384    -0.88640
H1859       H  0.89050219  0.67658017  0.97713921     0.35460
H1860       H  0.91589203  0.68433936  0.00489628     0.40550
H1861       H  0.82225065  0.80478280  0.51446457     0.40170
H1862       H  0.85259815  0.82214970  0.49877021     0.35060
C1863       C  0.64288902  0.74270843  0.97471585    -0.26670
C1864       C  0.65857740  0.75093232  0.50184014    -0.14740
C1865       C  0.64126320  0.75999005  0.52810492     0.35890
C1866       C  0.60896401  0.76078683  0.52635371    -0.25940
C1867       C  0.59370646  0.75216878  0.99936394    -0.15360
C1868       C  0.61064805  0.74318934  0.97327010     0.36970
N1869       N  0.59497921  0.73472734  0.94538463    -0.89610
H1870       H  0.65577610  0.73570977  0.95449290     0.18090
H1871       H  0.59556483  0.76756148  0.54634127     0.18080
N1872       N  0.65626833  0.76869202  0.55631174    -0.88640
H1873       H  0.61075980  0.72848511  0.92826277     0.35460
H1874       H  0.58336122  0.75423928  0.93746118     0.40550
H1875       H  0.66551235  0.74869542  0.56588605     0.40170
H1876       H  0.64025826  0.77706923  0.57229963     0.35060
C1877       C  0.77625117  0.85791480  0.98913752    -0.26670
C1878       C  0.74992947  0.84239892  0.49891094    -0.14740
C1879       C  0.72379268  0.85939335  0.50855587     0.35890
C1880       C  0.72493333  0.89157452  0.50860162    -0.26120
C1881       C  0.75149669  0.90739267  0.49943140    -0.15360
C1882       C  0.77762382  0.89019181  0.98975608     0.36970
N1883       N  0.80532897  0.90529775  0.98023071    -0.89610
H1884       H  0.79611869  0.84470426  0.98161886     0.18090
H1885       H  0.70474572  0.90429856  0.51610051     0.18080
N1886       N  0.69568798  0.84498747  0.51815526    -0.88640
H1887       H  0.82120674  0.88934286  0.97146545     0.35460
H1888       H  0.81551543  0.91466597  0.99994428     0.40550
H1889       H  0.69703912  0.82107085  0.51675872     0.40170
H1890       H  0.67841133  0.85160367  0.50279037     0.35060
C1891       C  0.77624731  0.60865537  0.99785391    -0.26670
C1892       C  0.74797549  0.59323089  0.00059808    -0.14740
C1893       C  0.72068027  0.61092405  0.50379668     0.35890
C1894       C  0.72246910  0.64321201  0.50474636    -0.26120
C1895       C  0.75065102  0.65814793  0.00198261    -0.15360
C1896       C  0.77781027  0.64086916  0.99850476     0.36970
N1897       N  0.80684929  0.65616613  0.99549314    -0.89610
H1898       H  0.79737823  0.59559462  0.99519932     0.18090
H1899       H  0.70165858  0.65687736  0.50713127     0.18080
N1900       N  0.69118585  0.59634012  0.50610561    -0.88640
H1901       H  0.82469618  0.64017596  0.99266055     0.35460
H1902       H  0.81111722  0.66780312  0.01618298     0.40550
H1903       H  0.68631716  0.58652100  0.48463161     0.40170
H1904       H  0.67385623  0.61263817  0.51019479     0.35060
C1905       C  0.75404757  0.97292184  0.89228156    -0.26670
C1906       C  0.74905547  0.50069116  0.90800365    -0.14740
C1907       C  0.74459215  0.52806043  0.89127677     0.35890
C1908       C  0.74509480  0.52684703  0.85908418    -0.26120
C1909       C  0.74996374  0.49902651  0.84298098    -0.15360
C1910       C  0.75479021  0.97169728  0.85996933     0.36970
N1911       N  0.76063842  0.94285680  0.84460612    -0.89610
H1912       H  0.75764144  0.95209328  0.90537224     0.18090
H1913       H  0.74154321  0.54804256  0.84661585     0.18080
N1914       N  0.74011477  0.55750587  0.90599090    -0.88640
H1915       H  0.76242679  0.92500449  0.86048687     0.35460
H1916       H  0.78214032  0.94442346  0.83397552     0.40550
H1917       H  0.74080265  0.55599849  0.92991825     0.40170
H1918       H  0.71808403  0.56533278  0.90024327     0.35060
C1919       C  0.72522268  0.51413345  0.60858963    -0.26670
C1920       C  0.74991694  0.50024264  0.59282007    -0.14740
C1921       C  0.77396743  0.98641258  0.60979966     0.35890
C1922       C  0.77291317  0.98720184  0.64210174    -0.26120
C1923       C  0.74836474  0.50142537  0.65777289    -0.15360
C1924       C  0.72406432  0.51489551  0.64078843     0.36970
N1925       N  0.69730917  0.52833092  0.65513450    -0.89610
H1926       H  0.70653226  0.52453756  0.59577429     0.18090
H1927       H  0.79133790  0.97667013  0.65520531     0.18080
N1928       N  0.79903681  0.97115066  0.59428702    -0.88640
H1929       H  0.69750208  0.55190842  0.65066518     0.35460
H1930       H  0.69741760  0.52577126  0.67895928     0.40550
H1931       H  0.79001174  0.95214927  0.58256667     0.40170
H1932       H  0.81489320  0.96251877  0.61016408     0.35060
C1933       C  0.97844486  0.76625600  0.89174386    -0.26670
C1934       C  0.50014624  0.74782133  0.90691905    -0.14740
C1935       C  0.52086311  0.72964760  0.88953080     0.35890
C1936       C  0.52009061  0.73114914  0.85728013    -0.26120
C1937       C  0.99818046  0.74930425  0.84202683    -0.15360
C1938       C  0.97671498  0.76666543  0.85945118     0.36970
N1939       N  0.95396230  0.78541881  0.84445111    -0.89610
H1940       H  0.96242626  0.78000365  0.90521029     0.18090
H1941       H  0.53638890  0.71764415  0.84391114     0.18080
N1942       N  0.54326792  0.71055771  0.90458778    -0.88640
H1943       H  0.94159021  0.79841934  0.86061970     0.35460
H1944       H  0.93803035  0.77064122  0.83419015     0.40550
H1945       H  0.53150703  0.69254536  0.91503002     0.40170
H1946       H  0.55806880  0.70034762  0.88848332     0.35060
C1947       C  0.50768325  0.72428958  0.60816963    -0.26670
C1948       C  0.00234448  0.75200442  0.59239220    -0.14740
C1949       C  0.99689734  0.77929332  0.60976104     0.35890
C1950       C  0.99638478  0.77794155  0.64205563    -0.26120
C1951       C  0.00190510  0.75032214  0.65735776    -0.15360
C1952       C  0.50753592  0.72321916  0.64046236     0.36970
N1953       N  0.51294097  0.69474032  0.65620965    -0.89610
H1954       H  0.51196152  0.70326219  0.59532186     0.18090
H1955       H  0.99205476  0.79864633  0.65545300     0.18080
N1956       N  0.99162190  0.80822849  0.59483241    -0.88640
H1957       H  0.51687197  0.67687914  0.64043298     0.35460
H1958       H  0.49282521  0.68922705  0.66809054     0.40550
H1959       H  0.01249914  0.81498235  0.58513079     0.40170
H1960       H  0.98583594  0.82530414  0.61091795     0.35060
C1961       C  0.60774525  0.51030926  0.77540221    -0.26670
C1962       C  0.59217116  0.99931466  0.74932875    -0.14740
C1963       C  0.60940076  0.98795813  0.72398510     0.35890
C1964       C  0.64170516  0.98834136  0.72524269    -0.26120
C1965       C  0.65718142  0.99966978  0.75116518    -0.15360
C1966       C  0.63995058  0.51064741  0.77668829     0.36970
N1967       N  0.65425506  0.52130154  0.80462830    -0.89610
H1968       H  0.59491214  0.51884657  0.79509098     0.18090
H1969       H  0.65496630  0.97985578  0.70580162     0.18080
N1970       N  0.59419047  0.97569530  0.69723888    -0.88640
H1971       H  0.64935260  0.54476105  0.80697351     0.35460
H1972       H  0.67813895  0.51896954  0.80402481     0.40550
H1973       H  0.58275575  0.95574454  0.70391582     0.40170
H1974       H  0.61022216  0.96895721  0.68053413     0.35060
C1975       C  0.85733333  0.98610443  0.72642552    -0.26670
C1976       C  0.84172930  0.00097898  0.75055564    -0.14740
C1977       C  0.85861806  0.51551958  0.77429872     0.35890
C1978       C  0.89080531  0.51480016  0.77311252    -0.26120
C1979       C  0.90652361  0.50011071  0.74885775    -0.15360
C1980       C  0.88962274  0.98564871  0.72513750     0.36970
N1981       N  0.90503492  0.97032678  0.70003273    -0.89610
H1982       H  0.84418534  0.97499442  0.70833685     0.18090
H1983       H  0.90365393  0.52594297  0.79138960     0.18080
N1984       N  0.84433785  0.53012461  0.80048974    -0.88640
H1985       H  0.88909885  0.96129574  0.68442378     0.35460
H1986       H  0.91707546  0.95160454  0.70905189     0.40550
H1987       H  0.82053632  0.52735352  0.80067844     0.40170
H1988       H  0.84866732  0.55369511  0.79916775     0.35060
C1989       C  0.52752945  0.89249394  0.75263013    -0.26670
C1990       C  0.49951028  0.90806662  0.74973194    -0.14740
C1991       C  0.97201771  0.89145754  0.74701467     0.35890
C1992       C  0.97310576  0.85917051  0.74691496    -0.26120
C1993       C  0.50120871  0.84310840  0.74960893    -0.15360
C1994       C  0.52885719  0.86020091  0.75236432     0.36970
N1995       N  0.55819545  0.84500575  0.75496487    -0.89610
H1996       H  0.54853332  0.90566815  0.75470532     0.18090
H1997       H  0.95179449  0.84656307  0.74476094     0.18080
N1998       N  0.94314897  0.90748419  0.74429043    -0.88640
H1999       H  0.57568771  0.86094804  0.75896975     0.35460
H2000       H  0.56305901  0.83486838  0.73361350     0.40550
H2001       H  0.93947677  0.91975253  0.76475651     0.40170
H2002       H  0.92501696  0.89191895  0.74220070     0.35060
C2003       C  0.97189030  0.64154887  0.74820847    -0.26670
C2004       C  0.50016583  0.65717971  0.74866017    -0.14740
C2005       C  0.52785954  0.63967375  0.74917124     0.35890
C2006       C  0.52641787  0.60743890  0.74957571    -0.26120
C2007       C  0.99822645  0.59220425  0.74893584    -0.15360
C2008       C  0.97054363  0.60936011  0.74834718     0.36970
N2009       N  0.94076791  0.59507707  0.74765297    -0.89610
H2010       H  0.95046032  0.65437799  0.74776266     0.18090
H2011       H  0.54750142  0.59400387  0.75004105     0.18080
N2012       N  0.55739556  0.65439644  0.74922192    -0.88640
H2013       H  0.92932168  0.60122923  0.76795657     0.35460
H2014       H  0.94238937  0.57113621  0.74745209     0.40550
H2015       H  0.56035642  0.66430590  0.72759603     0.40170
H2016       H  0.57511505  0.63821900  0.75154735     0.35060
loop_ 
_geom_bond_atom_site_label_1 
_geom_bond_atom_site_label_2 
_geom_bond_distance 
_geom_bond_site_symmetry_2 
_ccdc_geom_bond_type 
O1           Ni9   1.913       .  S
O1           C11   1.280   1_565  A
O2        Ni1521   1.916   1_455  S
O2           C12   1.281       .  A
O3         Ni513   1.917       .  S
O3         C1021   1.280       .  A
O4        Ni1017   1.917   1_545  S
O4         C1022   1.280       .  A
O5        Ni1522   1.914       .  S
O5           C14   1.279       .  A
O6          Ni10   1.915       .  S
O6           C13   1.280       .  A
O7         Ni514   1.920   1_455  S
O7          C516   1.283   1_545  A
O8        Ni1018   1.918       .  S
O8          C515   1.282       .  A
Ni9        O1514   1.916       .  S
Ni9         O507   1.917       .  S
Ni9        O1012   1.917   1_565  S
Ni9       Ni1522   2.390   1_565  S
Ni10       O1517   1.914       .  S
Ni10        O511   1.919   1_655  S
Ni10       O1016   1.918       .  S
Ni10      Ni1521   2.390       .  S
C11         O512   1.282       .  A
C11         C215   1.481       .  S
C12         O511   1.283       .  A
C12         C198   1.487       .  S
C13        O1011   1.280       .  A
C13         C226   1.466       .  S
C14        O1012   1.280       .  A
C14         C243   1.466       .  S
O15         Ni23   1.925       .  S
O15        C1033   1.284       .  A
O16         Ni23   1.921       .  S
O16        C1034   1.283       .  A
O17         Ni23   1.913       .  S
O17          C27   1.279       .  A
O18         Ni23   1.915       .  S
O18          C28   1.280       .  A
O19         Ni24   1.917       .  S
O19        C1036   1.282   1_455  A
O20         Ni24   1.918       .  S
O20        C1035   1.280       .  A
O21         Ni24   1.912       .  S
O21          C26   1.280       .  A
O22         Ni24   1.907       .  S
O22          C25   1.279       .  A
Ni23      Ni1032   2.385       .  S
Ni24      Ni1031   2.385   1_455  S
C25        O1023   1.284   1_455  A
C25         C240   1.492       .  S
C26        O1024   1.283   1_455  A
C26         C229   1.492       .  S
C27        O1028   1.280       .  A
C27         C187   1.466       .  S
C28        O1027   1.282       .  A
C28         C173   1.479       .  S
O29         Ni37   1.917       .  S
O29         C543   1.281       .  A
O30         Ni37   1.915       .  S
O30         C544   1.280   1_545  A
O31         Ni37   1.915       .  S
O31          C41   1.282   1_545  A
O32         Ni37   1.920       .  S
O32          C42   1.282       .  A
O33         Ni38   1.912       .  S
O33         C546   1.280       .  A
O34         Ni38   1.917       .  S
O34         C545   1.281       .  A
O35         Ni38   1.917       .  S
O35          C40   1.281       .  A
O36         Ni38   1.915       .  S
O36          C39   1.280       .  A
Ni37       Ni542   2.390   1_545  S
Ni38       Ni541   2.390       .  S
C39         O533   1.281       .  A
C39         C212   1.471       .  S
C40         O534   1.280       .  A
C40         C201   1.470       .  S
C41         O538   1.281       .  A
C41         C145   1.490       .  S
C42         O537   1.280   1_545  A
C42         C159   1.471       .  S
O43        Ni303   1.918   1_545  S
O43          C53   1.281       .  A
O44        Ni555   1.920       .  S
O44          C54   1.283   1_554  A
O45         Ni51   1.916   1_545  S
O45         C559   1.281       .  A
O46        Ni807   1.917       .  S
O46         C560   1.280       .  A
O47        Ni556   1.915       .  S
O47          C56   1.279       .  A
O48        Ni304   1.917   1_554  S
O48          C55   1.281       .  A
O49         Ni52   1.914       .  S
O49         C306   1.280       .  A
O50        Ni808   1.915   1_554  S
O50         C305   1.282       .  A
Ni51        O295   1.918   1_565  S
Ni51        O548   1.920       .  S
Ni51        O802   1.917   1_554  S
Ni51       Ni808   2.386   1_564  S
Ni52        O551   1.915       .  S
Ni52        O300   1.917       .  S
Ni52        O806   1.915       .  S
Ni52       Ni807   2.386       .  S
C53         O302   1.282       .  A
C53         C128   1.492       .  S
C54         O301   1.280       .  A
C54         C117   1.489       .  S
C55         O549   1.281       .  A
C55         C660   1.481       .  S
C56         O550   1.280   1_545  A
C56         C142   1.467       .  S
O57        Ni317   1.913       .  S
O57          C67   1.281       .  A
O58       Ni1073   1.918       .  S
O58          C68   1.280       .  A
O59         Ni65   1.919       .  S
O59        C1077   1.282       .  A
O60       Ni1325   1.914   1_554  S
O60        C1078   1.280       .  A
O61       Ni1074   1.919   1_554  S
O61          C70   1.283       .  A
O62        Ni318   1.915       .  S
O62          C69   1.280       .  A
O63         Ni66   1.914       .  S
O63         C320   1.280       .  A
O64       Ni1326   1.918       .  S
O64         C319   1.281       .  A
Ni65        O309   1.914       .  S
Ni65       O1066   1.918       .  S
Ni65       O1320   1.915       .  S
Ni65      Ni1326   2.386       .  S
Ni66       O1069   1.919   1_556  S
Ni66        O314   1.916       .  S
Ni66       O1324   1.919   1_456  S
Ni66      Ni1325   2.386       .  S
C67         O316   1.281   1_556  A
C67          C89   1.489       .  S
C68         O315   1.280       .  A
C68         C103   1.467       .  S
C69        O1067   1.282       .  A
C69         C170   1.476       .  S
C70        O1068   1.280       .  A
C70         C184   1.491       .  S
O71         Ni79   1.919       .  S
O71         C333   1.281       .  A
O72         Ni79   1.915       .  S
O72         C334   1.280   1_554  A
O73         Ni79   1.913       .  S
O73          C83   1.280       .  A
O74         Ni79   1.917       .  S
O74          C84   1.281   1_554  A
O75         Ni80   1.917       .  S
O75         C336   1.280       .  A
O76         Ni80   1.917       .  S
O76         C335   1.283       .  A
O77         Ni80   1.917       .  S
O77          C82   1.280       .  A
O78         Ni80   1.915       .  S
O78          C81   1.279       .  A
Ni79       Ni332   2.391   1_554  S
Ni80       Ni331   2.391       .  S
C81         O323   1.281       .  A
C81         C131   1.467       .  S
C82         O324   1.280       .  A
C82         C366   1.469       .  S
C83         O328   1.283   1_554  A
C83         C100   1.487       .  S
C84         O327   1.280       .  A
C84          C86   1.469       .  S
C85          C90   1.406       .  A
C85         C338   1.399       .  A
C85          H92   1.082       .  S
C86          C87   1.413   1_556  A
C86         C337   1.399       .  A
C87          C88   1.400       .  A
C87          N94   1.439       .  S
C88          C89   1.408   1_554  A
C88          H93   1.084       .  S
C89         C342   1.417       .  A
C90         C341   1.418       .  A
C90          N91   1.438       .  S
N91          H95   1.046       .  S
N91          H96   1.046       .  S
N94          H97   1.043       .  S
N94          H98   1.046   1_554  S
C99         C104   1.403       .  A
C99         C352   1.408       .  A
C99         H106   1.083       .  S
C100        C101   1.420       .  A
C100        C351   1.408   1_554  A
C101        C102   1.406       .  A
C101        N108   1.438       .  S
C102        C355   1.398   1_554  A
C102        H107   1.084       .  S
C103        C104   1.404       .  A
C103        C354   1.398       .  A
C104        N105   1.437       .  S
N105        H109   1.046       .  S
N105        H110   1.046       .  S
N108        H111   1.045       .  S
N108        H112   1.046       .  S
C113        C118   1.406       .  A
C113        C366   1.399       .  A
C113        H120   1.084       .  S
C114        C334   1.469       .  S
C114        C115   1.414   1_556  A
C114        C365   1.399       .  A
C115        C116   1.401       .  A
C115        N122   1.440       .  S
C116        C117   1.407   1_554  A
C116        H121   1.084       .  S
C117        C370   1.418       .  A
C118        C369   1.418       .  A
C118        N119   1.438       .  S
N119        H123   1.046       .  S
N119        H124   1.045       .  S
N122        H125   1.043       .  S
N122        H126   1.046       .  S
C127        C128   1.409       .  A
C127        C132   1.403       .  A
C127        H134   1.083       .  S
C128        C381   1.420       .  A
C129        C130   1.407       .  A
C129        C380   1.420       .  A
C129        N136   1.438       .  S
C130        C383   1.399       .  A
C130        H135   1.084       .  S
C131        C132   1.404       .  A
C131        C382   1.399       .  A
C132        N133   1.437       .  S
N133        H137   1.046       .  S
N133        H138   1.046       .  S
N136        H139   1.046   1_554  S
N136        H140   1.046       .  S
C141        C146   1.406       .  A
C141        C646   1.399       .  A
C141        H148   1.084       .  S
C142        C143   1.412       .  A
C142        C645   1.399   1_545  A
C143        C144   1.400       .  A
C143        N150   1.439       .  S
C144        C145   1.408   1_545  A
C144        H149   1.084       .  S
C145        C650   1.419       .  A
C146        C649   1.419       .  A
C146        N147   1.438       .  S
N147        H151   1.046       .  S
N147        H152   1.046       .  S
N150        H153   1.043       .  S
N150        H154   1.045       .  S
C155        C156   1.405       .  A
C155        C160   1.401       .  A
C155        H162   1.084       .  S
C156        C559   1.481       .  S
C156        C661   1.413   1_545  A
C157        C158   1.405       .  A
C157        C660   1.413       .  A
C157        N164   1.438       .  S
C158        C663   1.402       .  A
C158        H163   1.084       .  S
C159        C160   1.416       .  A
C159        C662   1.402   1_545  A
C160        N161   1.439       .  S
N161        H165   1.045       .  S
N161        H166   1.043       .  S
N164        H167   1.046       .  S
N164        H168   1.046       .  S
C169        C174   1.406       .  A
C169       C1178   1.402       .  A
C169        H176   1.084       .  S
C170        C171   1.411       .  A
C170       C1177   1.402   1_455  A
C171        C172   1.405       .  A
C171        N178   1.437       .  S
C172       C1181   1.404   1_455  A
C172        H177   1.084       .  S
C173        C174   1.413       .  A
C173       C1180   1.404       .  A
C174        N175   1.438       .  S
N175        H179   1.046       .  S
N175        H180   1.045       .  S
N178        H181   1.045       .  S
N178        H182   1.046       .  S
C183        C188   1.405       .  A
C183       C1192   1.410       .  A
C183        H190   1.083       .  S
C184        C185   1.421       .  A
C184       C1191   1.410       .  A
C185        C186   1.406       .  A
C185        N192   1.438       .  S
C186        C187   1.397       .  A
C186        H191   1.084       .  S
C187       C1196   1.404       .  A
C188       C1195   1.404       .  A
C188        N189   1.438       .  S
N189        H193   1.046       .  S
N189        H194   1.046   1_455  S
N192        H195   1.046       .  S
N192        H196   1.046       .  S
C197        C202   1.401       .  A
C197        C702   1.406   1_545  A
C197        H204   1.084       .  S
C198        C199   1.416       .  A
C198        C701   1.406       .  A
C199        C200   1.406       .  A
C199        N206   1.438       .  S
C200        C201   1.400       .  A
C200        H205   1.084       .  S
C201        C706   1.415       .  A
C202        C705   1.415   1_545  A
C202        N203   1.439       .  S
N203        H207   1.045       .  S
N203        H208   1.043       .  S
N206        H209   1.046       .  S
N206        H210   1.046       .  S
C211        C212   1.401       .  A
C211        C216   1.405       .  A
C211        H218   1.084       .  S
C212        C717   1.416       .  A
C213        C214   1.400       .  A
C213        C716   1.416       .  A
C213        N220   1.439       .  S
C214        C215   1.404       .  A
C214        H219   1.084       .  S
C215        C720   1.414   1_545  A
C216        C719   1.414       .  A
C216        N217   1.438       .  S
N217        H221   1.046       .  S
N217        H222   1.044       .  S
N220        H223   1.042       .  S
N220        H224   1.046       .  S
C225        C226   1.396   1_455  A
C225        C230   1.406       .  A
C225        H232   1.084       .  S
C226       C1235   1.405       .  A
C227        C228   1.405       .  A
C227       C1234   1.405       .  A
C227        N234   1.437       .  S
C228       C1237   1.409       .  A
C228        H233   1.083       .  S
C229        C230   1.422       .  A
C229       C1236   1.409   1_455  A
C230        N231   1.438       .  S
N231        H235   1.046       .  S
N231        H236   1.046       .  S
N234        H237   1.046       .  S
N234        H238   1.046       .  S
C239        C244   1.402       .  A
C239       C1248   1.408       .  A
C239        H246   1.083       .  S
C240        C241   1.421       .  A
C240       C1247   1.408   1_455  A
C241        C242   1.404       .  A
C241        N248   1.438       .  S
C242       C1251   1.397   1_455  A
C242        H247   1.084       .  S
C243        C244   1.413       .  A
C243       C1250   1.397       .  A
C244        N245   1.439       .  S
N245        H249   1.046       .  S
N245        H250   1.043       .  S
N248        H251   1.046       .  S
N248        H252   1.046       .  S
O253       Ni261   1.913       .  S
O253        C263   1.280   1_565  A
O254      Ni1773   1.916   1_455  S
O254        C264   1.281       .  A
O255       Ni765   1.917       .  S
O255       C1273   1.280       .  A
O256      Ni1269   1.917   1_545  S
O256       C1274   1.280       .  A
O257      Ni1774   1.914       .  S
O257        C266   1.279       .  A
O258       Ni262   1.915       .  S
O258        C265   1.280       .  A
O259       Ni766   1.920   1_455  S
O259        C768   1.283   1_545  A
O260      Ni1270   1.918       .  S
O260        C767   1.282       .  A
Ni261      O1766   1.916       .  S
Ni261       O759   1.917       .  S
Ni261      O1264   1.917   1_565  S
Ni261     Ni1774   2.390   1_565  S
Ni262      O1769   1.914       .  S
Ni262       O763   1.919   1_655  S
Ni262      O1268   1.918       .  S
Ni262     Ni1773   2.390       .  S
C263        O764   1.282       .  A
C263        C467   1.481       .  S
C264        O763   1.283       .  A
C264        C450   1.487       .  S
C265       O1263   1.280       .  A
C265        C478   1.466       .  S
C266       O1264   1.280       .  A
C266        C495   1.466       .  S
O267       Ni275   1.925       .  S
O267       C1285   1.284       .  A
O268       Ni275   1.921       .  S
O268       C1286   1.283       .  A
O269       Ni275   1.913       .  S
O269        C279   1.279       .  A
O270       Ni275   1.915       .  S
O270        C280   1.280       .  A
O271       Ni276   1.917       .  S
O271       C1288   1.282   1_455  A
O272       Ni276   1.918       .  S
O272       C1287   1.280       .  A
O273       Ni276   1.912       .  S
O273        C278   1.280       .  A
O274       Ni276   1.907       .  S
O274        C277   1.279       .  A
Ni275     Ni1284   2.385       .  S
Ni276     Ni1283   2.385   1_455  S
C277       O1275   1.284   1_455  A
C277        C492   1.492       .  S
C278       O1276   1.283   1_455  A
C278        C481   1.492       .  S
C279       O1280   1.280       .  A
C279        C439   1.466       .  S
C280       O1279   1.282       .  A
C280        C425   1.479       .  S
O281       Ni289   1.917       .  S
O281        C795   1.281       .  A
O282       Ni289   1.915       .  S
O282        C796   1.280   1_545  A
O283       Ni289   1.915       .  S
O283        C293   1.282   1_545  A
O284       Ni289   1.920       .  S
O284        C294   1.282       .  A
O285       Ni290   1.912       .  S
O285        C798   1.280       .  A
O286       Ni290   1.917       .  S
O286        C797   1.281       .  A
O287       Ni290   1.917       .  S
O287        C292   1.281       .  A
O288       Ni290   1.915       .  S
O288        C291   1.280       .  A
Ni289      Ni794   2.390   1_545  S
Ni290      Ni793   2.390       .  S
C291        O785   1.281       .  A
C291        C464   1.471       .  S
C292        O786   1.280       .  A
C292        C453   1.470       .  S
C293        O790   1.281       .  A
C293        C397   1.490       .  S
C294        O789   1.280   1_545  A
C294        C411   1.471       .  S
O295        C305   1.281       .  A
O296       Ni807   1.920       .  S
O296        C306   1.283       .  A
O297       Ni303   1.916   1_545  S
O297        C811   1.281       .  A
O298       Ni555   1.917   1_556  S
O298        C812   1.280       .  A
O299       Ni808   1.914       .  S
O299        C308   1.279       .  A
O300        C307   1.281       .  A
O301       Ni304   1.914       .  S
O302       Ni556   1.915       .  S
Ni303       O800   1.920       .  S
Ni303       O550   1.917       .  S
Ni303      Ni556   2.386   1_565  S
Ni304       O803   1.914       .  S
Ni304       O554   1.915   1_556  S
Ni304      Ni555   2.386   1_556  S
C305        C380   1.492       .  S
C306        C369   1.489       .  S
C307        O801   1.281       .  A
C307        C912   1.481       .  S
C308        O802   1.280   1_545  A
C308        C394   1.467       .  S
O309        C319   1.281       .  A
O310      Ni1325   1.917       .  S
O310        C320   1.280       .  A
O311       Ni317   1.918       .  S
O311       C1329   1.281       .  A
O312      Ni1073   1.915       .  S
O312       C1330   1.280       .  A
O313      Ni1326   1.919       .  S
O313        C322   1.283       .  A
O314        C321   1.280       .  A
O315       Ni318   1.914       .  S
O316      Ni1074   1.919   1_554  S
Ni317      O1318   1.917       .  S
Ni317      O1068   1.914   1_556  S
Ni317     Ni1074   2.386       .  S
Ni318      O1321   1.919       .  S
Ni318      O1072   1.918   1_455  S
Ni318     Ni1073   2.386       .  S
C319        C341   1.489       .  S
C320        C355   1.467       .  S
C321       O1319   1.281       .  A
C321        C422   1.476       .  S
C322       O1320   1.280       .  A
C322        C436   1.491       .  S
O323       Ni331   1.919       .  S
O324       Ni331   1.915       .  S
O325       Ni331   1.913       .  S
O325        C335   1.280       .  A
O326       Ni331   1.917       .  S
O326        C336   1.281       .  A
O327       Ni332   1.917       .  S
O328       Ni332   1.917       .  S
O329       Ni332   1.917       .  S
O329        C334   1.280       .  A
O330       Ni332   1.915       .  S
O330        C333   1.279   1_556  A
C333        C383   1.468       .  S
C335        C352   1.487       .  S
C336        C338   1.469       .  S
C337        C342   1.406       .  A
C337        H344   1.082       .  S
C338        C339   1.413       .  A
C339        C340   1.400       .  A
C339        N346   1.439       .  S
C340        C341   1.408       .  A
C340        H345   1.084       .  S
C342        N343   1.438       .  S
N343        H347   1.046       .  S
N343        H348   1.045   1_556  S
N346        H349   1.043       .  S
N346        H350   1.046       .  S
C351        C356   1.403       .  A
C351        H358   1.083       .  S
C352        C353   1.420       .  A
C353        C354   1.406       .  A
C353        N360   1.438       .  S
C354        H359   1.084       .  S
C355        C356   1.404       .  A
C356        N357   1.437       .  S
N357        H361   1.046       .  S
N357        H362   1.046       .  S
N360        H363   1.045       .  S
N360        H364   1.046       .  S
C365        C370   1.406       .  A
C365        H372   1.084       .  S
C366        C367   1.414       .  A
C367        C368   1.401       .  A
C367        N374   1.440       .  S
C368        C369   1.407       .  A
C368        H373   1.084       .  S
C370        N371   1.438       .  S
N371        H375   1.046       .  S
N371        H376   1.045       .  S
N374        H377   1.043       .  S
N374        H378   1.046       .  S
C379        C380   1.409   1_556  A
C379        C384   1.403       .  A
C379        H386   1.083       .  S
C381        C382   1.407       .  A
C381        N388   1.438       .  S
C382        H387   1.084       .  S
C383        C384   1.403   1_554  A
C384        N385   1.437       .  S
N385        H389   1.046       .  S
N385        H390   1.046   1_556  S
N388        H391   1.046       .  S
N388        H392   1.046       .  S
C393        C898   1.399       .  A
C393        C398   1.406       .  A
C393        H400   1.084       .  S
C394        C897   1.399   1_545  A
C394        C395   1.412       .  A
C395        C396   1.400       .  A
C395        N402   1.439       .  S
C396        C397   1.408   1_545  A
C396        H401   1.084       .  S
C397        C902   1.419       .  A
C398        C901   1.419       .  A
C398        N399   1.438       .  S
N399        H403   1.046       .  S
N399        H404   1.046       .  S
N402        H405   1.043       .  S
N402        H406   1.045       .  S
C407        C408   1.405       .  A
C407        C412   1.401       .  A
C407        H414   1.084       .  S
C408        C811   1.481       .  S
C408        C913   1.413   1_545  A
C409        C912   1.413       .  A
C409        C410   1.405       .  A
C409        N416   1.438       .  S
C410        C915   1.402       .  A
C410        H415   1.084       .  S
C411        C914   1.402   1_545  A
C411        C412   1.416       .  A
C412        N413   1.439       .  S
N413        H417   1.045       .  S
N413        H418   1.043       .  S
N416        H419   1.046       .  S
N416        H420   1.046       .  S
C421       C1430   1.403       .  A
C421        C426   1.406       .  A
C421        H428   1.084       .  S
C422       C1429   1.403   1_455  A
C422        C423   1.411       .  A
C423        C424   1.404       .  A
C423        N430   1.437       .  S
C424       C1433   1.404   1_455  A
C424        H429   1.084       .  S
C425       C1432   1.404       .  A
C425        C426   1.413       .  A
C426        N427   1.438       .  S
N427        H431   1.046       .  S
N427        H432   1.045       .  S
N430        H433   1.045       .  S
N430        H434   1.046       .  S
C435       C1444   1.410       .  A
C435        C440   1.405       .  A
C435        H442   1.083       .  S
C436       C1443   1.410       .  A
C436        C437   1.420       .  A
C437        C438   1.406       .  A
C437        N444   1.438       .  S
C438        C439   1.397       .  A
C438        H443   1.084       .  S
C439       C1448   1.404       .  A
C440       C1447   1.404       .  A
C440        N441   1.438       .  S
N441        H445   1.046       .  S
N441        H446   1.046   1_455  S
N444        H447   1.046       .  S
N444        H448   1.046       .  S
C449        C954   1.406   1_545  A
C449        C454   1.401       .  A
C449        H456   1.084       .  S
C450        C953   1.406       .  A
C450        C451   1.416       .  A
C451        C452   1.406       .  A
C451        N458   1.438       .  S
C452        C453   1.400       .  A
C452        H457   1.084       .  S
C453        C958   1.415       .  A
C454        C957   1.415   1_545  A
C454        N455   1.439       .  S
N455        H459   1.045       .  S
N455        H460   1.043       .  S
N458        H461   1.046       .  S
N458        H462   1.046       .  S
C463        C464   1.401       .  A
C463        C468   1.405       .  A
C463        H470   1.084       .  S
C464        C969   1.416       .  A
C465        C968   1.416       .  A
C465        C466   1.400       .  A
C465        N472   1.439       .  S
C466        C467   1.404       .  A
C466        H471   1.084       .  S
C467        C972   1.414   1_545  A
C468        C971   1.414       .  A
C468        N469   1.438       .  S
N469        H473   1.046       .  S
N469        H474   1.044       .  S
N472        H475   1.042       .  S
N472        H476   1.046       .  S
C477        C478   1.396   1_455  A
C477        C482   1.406       .  A
C477        H484   1.084       .  S
C478       C1487   1.405       .  A
C479       C1486   1.405       .  A
C479        C480   1.405       .  A
C479        N486   1.437       .  S
C480       C1489   1.409       .  A
C480        H485   1.083       .  S
C481       C1488   1.409   1_455  A
C481        C482   1.422       .  A
C482        N483   1.438       .  S
N483        H487   1.046       .  S
N483        H488   1.046       .  S
N486        H489   1.046       .  S
N486        H490   1.046       .  S
C491       C1500   1.408       .  A
C491        C496   1.402       .  A
C491        H498   1.083       .  S
C492       C1499   1.408   1_455  A
C492        C493   1.421       .  A
C493        C494   1.404       .  A
C493        N500   1.438       .  S
C494       C1503   1.397   1_455  A
C494        H499   1.084       .  S
C495       C1502   1.397       .  A
C495        C496   1.413       .  A
C496        N497   1.439       .  S
N497        H501   1.046       .  S
N497        H502   1.043       .  S
N500        H503   1.046       .  S
N500        H504   1.046       .  S
O505       Ni513   1.913       .  S
O505        C515   1.280       .  A
O506      Ni1017   1.916   1_455  S
O506        C516   1.281       .  A
O507       C1525   1.280       .  A
O508      Ni1521   1.917       .  S
O508       C1526   1.280       .  A
O509      Ni1018   1.914       .  S
O509        C518   1.279       .  A
O510       Ni514   1.915   1_565  S
O510        C517   1.280       .  A
O512      Ni1522   1.918       .  S
Ni513      O1010   1.916       .  S
Ni513      O1516   1.917       .  S
Ni513     Ni1018   2.390       .  S
Ni514      O1013   1.914       .  S
Ni514      O1520   1.918       .  S
Ni514     Ni1017   2.390   1_545  S
C515        C719   1.481       .  S
C516        C702   1.487       .  S
C517       O1515   1.280       .  A
C517        C730   1.466       .  S
C518       O1516   1.280       .  A
C518        C747   1.466       .  S
O519       Ni527   1.925       .  S
O519       C1537   1.284       .  A
O520       Ni527   1.921       .  S
O520       C1538   1.283       .  A
O521       Ni527   1.913       .  S
O521        C531   1.279       .  A
O522       Ni527   1.915       .  S
O522        C532   1.280       .  A
O523       Ni528   1.917       .  S
O523       C1540   1.282   1_455  A
O524       Ni528   1.918       .  S
O524       C1539   1.280       .  A
O525       Ni528   1.912       .  S
O525        C530   1.280       .  A
O526       Ni528   1.907       .  S
O526        C529   1.279       .  A
Ni527     Ni1536   2.385       .  S
Ni528     Ni1535   2.385   1_455  S
C529       O1527   1.284   1_455  A
C529        C744   1.492       .  S
C530       O1528   1.283   1_455  A
C530        C733   1.492       .  S
C531       O1532   1.280       .  A
C531        C691   1.466       .  S
C532       O1531   1.282       .  A
C532        C677   1.479       .  S
O533       Ni541   1.917       .  S
O534       Ni541   1.915       .  S
O535       Ni541   1.915       .  S
O535        C545   1.282       .  A
O536       Ni541   1.920       .  S
O536        C546   1.282       .  A
O537       Ni542   1.912       .  S
O538       Ni542   1.917       .  S
O539       Ni542   1.917       .  S
O539        C544   1.281       .  A
O540       Ni542   1.915       .  S
O540        C543   1.280   1_565  A
C543        C716   1.471       .  S
C544        C705   1.470       .  S
C545        C649   1.490       .  S
C546        C663   1.471       .  S
O547       Ni807   1.918       .  S
O547        C557   1.281       .  A
O548        C558   1.283   1_554  A
O549       Ni555   1.916       .  S
O551        C560   1.279       .  A
O552       Ni808   1.916   1_554  S
O552        C559   1.281       .  A
O553       Ni556   1.914   1_565  S
O553        C810   1.280       .  A
O554        C809   1.282       .  A
Ni555       O799   1.918       .  S
Ni556       O804   1.917       .  S
C557        O806   1.282       .  A
C557        C632   1.492       .  S
C558        O805   1.280       .  A
C558        C621   1.489       .  S
C560        C646   1.467       .  S
O561       Ni821   1.913       .  S
O561        C571   1.281       .  A
O562      Ni1577   1.918       .  S
O562        C572   1.280       .  A
O563       Ni569   1.919       .  S
O563       C1581   1.282       .  A
O564      Ni1829   1.914   1_554  S
O564       C1582   1.280       .  A
O565      Ni1578   1.919   1_554  S
O565        C574   1.283       .  A
O566       Ni822   1.915       .  S
O566        C573   1.280       .  A
O567       Ni570   1.914       .  S
O567        C824   1.280       .  A
O568      Ni1830   1.918       .  S
O568        C823   1.281       .  A
Ni569       O813   1.914       .  S
Ni569      O1570   1.918       .  S
Ni569      O1824   1.915       .  S
Ni569     Ni1830   2.386       .  S
Ni570      O1573   1.919   1_556  S
Ni570       O818   1.916       .  S
Ni570      O1828   1.919   1_456  S
Ni570     Ni1829   2.386       .  S
C571        O820   1.281   1_556  A
C571        C593   1.489       .  S
C572        O819   1.280       .  A
C572        C607   1.467       .  S
C573       O1571   1.282       .  A
C573        C674   1.476       .  S
C574       O1572   1.280       .  A
C574        C688   1.491       .  S
O575       Ni583   1.919       .  S
O575        C837   1.281       .  A
O576       Ni583   1.915       .  S
O576        C838   1.280   1_554  A
O577       Ni583   1.913       .  S
O577        C587   1.280       .  A
O578       Ni583   1.917       .  S
O578        C588   1.281   1_554  A
O579       Ni584   1.917       .  S
O579        C840   1.280       .  A
O580       Ni584   1.917       .  S
O580        C839   1.283       .  A
O581       Ni584   1.917       .  S
O581        C586   1.280       .  A
O582       Ni584   1.915       .  S
O582        C585   1.279       .  A
Ni583      Ni836   2.391   1_554  S
Ni584      Ni835   2.391       .  S
C585        O827   1.281       .  A
C585        C635   1.467       .  S
C586        O828   1.280       .  A
C586        C870   1.469       .  S
C587        O832   1.283   1_554  A
C587        C604   1.487       .  S
C588        O831   1.280       .  A
C588        C590   1.469       .  S
C589        C842   1.399       .  A
C589        C594   1.406       .  A
C589        H596   1.082       .  S
C590        C841   1.399       .  A
C590        C591   1.413   1_556  A
C591        C592   1.400       .  A
C591        N598   1.439       .  S
C592        C593   1.408   1_554  A
C592        H597   1.084       .  S
C593        C846   1.417       .  A
C594        C845   1.418       .  A
C594        N595   1.438       .  S
N595        H599   1.046       .  S
N595        H600   1.046       .  S
N598        H601   1.043       .  S
N598        H602   1.046   1_554  S
C603        C856   1.408       .  A
C603        C608   1.403       .  A
C603        H610   1.083       .  S
C604        C855   1.408   1_554  A
C604        C605   1.420       .  A
C605        C606   1.406       .  A
C605        N612   1.438       .  S
C606        C859   1.398   1_554  A
C606        H611   1.084       .  S
C607        C858   1.398       .  A
C607        C608   1.404       .  A
C608        N609   1.437       .  S
N609        H613   1.046       .  S
N609        H614   1.046       .  S
N612        H615   1.045       .  S
N612        H616   1.046       .  S
C617        C870   1.399       .  A
C617        C622   1.406       .  A
C617        H624   1.084       .  S
C618        C838   1.469       .  S
C618        C869   1.399       .  A
C618        C619   1.414   1_556  A
C619        C620   1.401       .  A
C619        N626   1.440       .  S
C620        C621   1.407   1_554  A
C620        H625   1.084       .  S
C621        C874   1.418       .  A
C622        C873   1.418       .  A
C622        N623   1.438       .  S
N623        H627   1.046       .  S
N623        H628   1.045       .  S
N626        H629   1.043       .  S
N626        H630   1.046       .  S
C631        C632   1.409       .  A
C631        C636   1.403       .  A
C631        H638   1.083       .  S
C632        C885   1.420       .  A
C633        C884   1.420       .  A
C633        C634   1.407       .  A
C633        N640   1.438       .  S
C634        C887   1.399       .  A
C634        H639   1.084       .  S
C635        C886   1.399       .  A
C635        C636   1.404       .  A
C636        N637   1.437       .  S
N637        H641   1.046       .  S
N637        H642   1.046       .  S
N640        H643   1.046   1_554  S
N640        H644   1.046       .  S
C645        C650   1.406       .  A
C645        H652   1.084       .  S
C646        C647   1.412       .  A
C647        C648   1.400       .  A
C647        N654   1.439       .  S
C648        C649   1.408       .  A
C648        H653   1.084       .  S
C650        N651   1.438       .  S
N651        H655   1.046       .  S
N651        H656   1.046       .  S
N654        H657   1.043       .  S
N654        H658   1.045       .  S
C659        C660   1.405       .  A
C659        C664   1.401       .  A
C659        H666   1.084       .  S
C661        C662   1.405       .  A
C661        N668   1.438       .  S
C662        H667   1.084       .  S
C663        C664   1.416       .  A
C664        N665   1.439       .  S
N665        H669   1.045       .  S
N665        H670   1.043       .  S
N668        H671   1.046       .  S
N668        H672   1.046       .  S
C673       C1682   1.402       .  A
C673        C678   1.406       .  A
C673        H680   1.084       .  S
C674       C1681   1.402   1_455  A
C674        C675   1.411       .  A
C675        C676   1.405       .  A
C675        N682   1.437       .  S
C676       C1685   1.404   1_455  A
C676        H681   1.084       .  S
C677       C1684   1.404       .  A
C677        C678   1.413       .  A
C678        N679   1.438       .  S
N679        H683   1.046       .  S
N679        H684   1.045       .  S
N682        H685   1.045       .  S
N682        H686   1.046       .  S
C687       C1696   1.410       .  A
C687        C692   1.405       .  A
C687        H694   1.083       .  S
C688       C1695   1.410       .  A
C688        C689   1.421       .  A
C689        C690   1.406       .  A
C689        N696   1.438       .  S
C690        C691   1.397       .  A
C690        H695   1.084       .  S
C691       C1700   1.404       .  A
C692       C1699   1.404       .  A
C692        N693   1.438       .  S
N693        H697   1.046       .  S
N693        H698   1.046   1_455  S
N696        H699   1.046       .  S
N696        H700   1.046       .  S
C701        C706   1.401       .  A
C701        H708   1.084       .  S
C702        C703   1.416       .  A
C703        C704   1.406       .  A
C703        N710   1.438       .  S
C704        C705   1.400       .  A
C704        H709   1.084       .  S
C706        N707   1.439       .  S
N707        H711   1.045       .  S
N707        H712   1.043       .  S
N710        H713   1.046       .  S
N710        H714   1.046       .  S
C715        C716   1.401   1_565  A
C715        C720   1.405       .  A
C715        H722   1.084       .  S
C717        C718   1.400       .  A
C717        N724   1.439       .  S
C718        C719   1.404       .  A
C718        H723   1.084       .  S
C720        N721   1.438       .  S
N721        H725   1.046       .  S
N721        H726   1.045       .  S
N724        H727   1.042       .  S
N724        H728   1.046       .  S
C729        C730   1.396   1_455  A
C729        C734   1.405       .  A
C729        H736   1.084       .  S
C730       C1739   1.405       .  A
C731       C1738   1.405       .  A
C731        C732   1.405       .  A
C731        N738   1.437       .  S
C732       C1741   1.409       .  A
C732        H737   1.083       .  S
C733       C1740   1.409   1_455  A
C733        C734   1.422       .  A
C734        N735   1.438       .  S
N735        H739   1.046       .  S
N735        H740   1.046       .  S
N738        H741   1.046       .  S
N738        H742   1.046       .  S
C743       C1752   1.408       .  A
C743        C748   1.402       .  A
C743        H750   1.083       .  S
C744       C1751   1.408   1_455  A
C744        C745   1.421       .  A
C745        C746   1.404       .  A
C745        N752   1.438       .  S
C746       C1755   1.397   1_455  A
C746        H751   1.084       .  S
C747       C1754   1.397       .  A
C747        C748   1.413       .  A
C748        N749   1.439       .  S
N749        H753   1.046       .  S
N749        H754   1.043       .  S
N752        H755   1.046       .  S
N752        H756   1.046       .  S
O757       Ni765   1.913       .  S
O757        C767   1.280       .  A
O758      Ni1269   1.916   1_455  S
O758        C768   1.281       .  A
O759       C1777   1.280       .  A
O760      Ni1773   1.917       .  S
O760       C1778   1.280       .  A
O761      Ni1270   1.914       .  S
O761        C770   1.279       .  A
O762       Ni766   1.915   1_565  S
O762        C769   1.280       .  A
O764      Ni1774   1.918       .  S
Ni765      O1262   1.916       .  S
Ni765      O1768   1.917       .  S
Ni765     Ni1270   2.390       .  S
Ni766      O1265   1.914       .  S
Ni766      O1772   1.918       .  S
Ni766     Ni1269   2.390   1_545  S
C767        C971   1.481       .  S
C768        C954   1.487       .  S
C769       O1767   1.280       .  A
C769        C982   1.466       .  S
C770       O1768   1.280       .  A
C770        C999   1.466       .  S
O771       Ni779   1.925       .  S
O771       C1789   1.284       .  A
O772       Ni779   1.921       .  S
O772       C1790   1.283       .  A
O773       Ni779   1.913       .  S
O773        C783   1.279       .  A
O774       Ni779   1.915       .  S
O774        C784   1.280       .  A
O775       Ni780   1.917       .  S
O775       C1792   1.282   1_455  A
O776       Ni780   1.918       .  S
O776       C1791   1.280       .  A
O777       Ni780   1.912       .  S
O777        C782   1.280       .  A
O778       Ni780   1.907       .  S
O778        C781   1.279       .  A
Ni779     Ni1788   2.385       .  S
Ni780     Ni1787   2.385   1_455  S
C781       O1779   1.284   1_455  A
C781        C996   1.492       .  S
C782       O1780   1.283   1_455  A
C782        C985   1.492       .  S
C783       O1784   1.280       .  A
C783        C943   1.466       .  S
C784       O1783   1.282       .  A
C784        C929   1.479       .  S
O785       Ni793   1.917       .  S
O786       Ni793   1.915       .  S
O787       Ni793   1.915       .  S
O787        C797   1.282       .  A
O788       Ni793   1.920       .  S
O788        C798   1.282       .  A
O789       Ni794   1.912       .  S
O790       Ni794   1.917       .  S
O791       Ni794   1.917       .  S
O791        C796   1.281       .  A
O792       Ni794   1.915       .  S
O792        C795   1.280   1_565  A
C795        C968   1.471       .  S
C796        C957   1.470       .  S
C797        C901   1.490       .  S
C798        C915   1.471       .  S
O799        C809   1.281       .  A
O800        C810   1.283       .  A
O801       Ni807   1.916       .  S
O803        C812   1.279       .  A
O804        C811   1.281       .  A
O805       Ni808   1.914   1_565  S
C809        C884   1.492       .  S
C810        C873   1.489       .  S
C812        C898   1.467       .  S
O813        C823   1.281       .  A
O814      Ni1829   1.917       .  S
O814        C824   1.280       .  A
O815       Ni821   1.918       .  S
O815       C1833   1.281       .  A
O816      Ni1577   1.915       .  S
O816       C1834   1.280       .  A
O817      Ni1830   1.919       .  S
O817        C826   1.283       .  A
O818        C825   1.280       .  A
O819       Ni822   1.914       .  S
O820      Ni1578   1.919   1_554  S
Ni821      O1822   1.917       .  S
Ni821      O1572   1.914   1_556  S
Ni821     Ni1578   2.386       .  S
Ni822      O1825   1.919       .  S
Ni822      O1576   1.918   1_455  S
Ni822     Ni1577   2.386       .  S
C823        C845   1.489       .  S
C824        C859   1.467       .  S
C825       O1823   1.281       .  A
C825        C926   1.476       .  S
C826       O1824   1.280       .  A
C826        C940   1.491       .  S
O827       Ni835   1.919       .  S
O828       Ni835   1.915       .  S
O829       Ni835   1.913       .  S
O829        C839   1.280       .  A
O830       Ni835   1.917       .  S
O830        C840   1.281       .  A
O831       Ni836   1.917       .  S
O832       Ni836   1.917       .  S
O833       Ni836   1.917       .  S
O833        C838   1.280       .  A
O834       Ni836   1.915       .  S
O834        C837   1.279   1_556  A
C837        C887   1.468       .  S
C839        C856   1.487       .  S
C840        C842   1.469       .  S
C841        C846   1.406       .  A
C841        H848   1.082       .  S
C842        C843   1.413       .  A
C843        C844   1.400       .  A
C843        N850   1.439       .  S
C844        C845   1.408       .  A
C844        H849   1.084       .  S
C846        N847   1.438       .  S
N847        H851   1.046       .  S
N847        H852   1.045   1_556  S
N850        H853   1.043       .  S
N850        H854   1.046       .  S
C855        C860   1.403       .  A
C855        H862   1.083       .  S
C856        C857   1.420       .  A
C857        C858   1.406       .  A
C857        N864   1.438       .  S
C858        H863   1.084       .  S
C859        C860   1.404       .  A
C860        N861   1.437       .  S
N861        H865   1.046       .  S
N861        H866   1.046       .  S
N864        H867   1.045       .  S
N864        H868   1.046       .  S
C869        C874   1.406       .  A
C869        H876   1.084       .  S
C870        C871   1.414       .  A
C871        C872   1.401       .  A
C871        N878   1.440       .  S
C872        C873   1.407       .  A
C872        H877   1.084       .  S
C874        N875   1.438       .  S
N875        H879   1.046       .  S
N875        H880   1.045       .  S
N878        H881   1.043       .  S
N878        H882   1.046       .  S
C883        C884   1.409   1_556  A
C883        C888   1.403       .  A
C883        H890   1.083       .  S
C885        C886   1.407       .  A
C885        N892   1.438       .  S
C886        H891   1.084       .  S
C887        C888   1.403   1_554  A
C888        N889   1.437       .  S
N889        H893   1.046       .  S
N889        H894   1.046   1_556  S
N892        H895   1.046       .  S
N892        H896   1.046       .  S
C897        C902   1.406       .  A
C897        H904   1.084       .  S
C898        C899   1.412       .  A
C899        C900   1.400       .  A
C899        N906   1.439       .  S
C900        C901   1.408       .  A
C900        H905   1.084       .  S
C902        N903   1.438       .  S
N903        H907   1.046       .  S
N903        H908   1.046       .  S
N906        H909   1.043       .  S
N906        H910   1.045       .  S
C911        C912   1.405       .  A
C911        C916   1.401       .  A
C911        H918   1.084       .  S
C913        C914   1.405       .  A
C913        N920   1.438       .  S
C914        H919   1.084       .  S
C915        C916   1.416       .  A
C916        N917   1.439       .  S
N917        H921   1.045       .  S
N917        H922   1.043       .  S
N920        H923   1.046       .  S
N920        H924   1.046       .  S
C925       C1934   1.403       .  A
C925        C930   1.406       .  A
C925        H932   1.084       .  S
C926       C1933   1.403   1_455  A
C926        C927   1.411       .  A
C927        C928   1.404       .  A
C927        N934   1.437       .  S
C928       C1937   1.404   1_455  A
C928        H933   1.084       .  S
C929       C1936   1.404       .  A
C929        C930   1.413       .  A
C930        N931   1.438       .  S
N931        H935   1.046       .  S
N931        H936   1.045       .  S
N934        H937   1.045       .  S
N934        H938   1.046       .  S
C939       C1948   1.410       .  A
C939        C944   1.405       .  A
C939        H946   1.083       .  S
C940       C1947   1.410       .  A
C940        C941   1.420       .  A
C941        C942   1.406       .  A
C941        N948   1.438       .  S
C942        C943   1.397       .  A
C942        H947   1.084       .  S
C943       C1952   1.404       .  A
C944       C1951   1.404       .  A
C944        N945   1.438       .  S
N945        H949   1.046       .  S
N945        H950   1.046   1_455  S
N948        H951   1.046       .  S
N948        H952   1.046       .  S
C953        C958   1.401       .  A
C953        H960   1.084       .  S
C954        C955   1.416       .  A
C955        C956   1.406       .  A
C955        N962   1.438       .  S
C956        C957   1.400       .  A
C956        H961   1.084       .  S
C958        N959   1.439       .  S
N959        H963   1.045       .  S
N959        H964   1.043       .  S
N962        H965   1.046       .  S
N962        H966   1.046       .  S
C967        C968   1.401   1_565  A
C967        C972   1.405       .  A
C967        H974   1.084       .  S
C969        C970   1.400       .  A
C969        N976   1.439       .  S
C970        C971   1.404       .  A
C970        H975   1.084       .  S
C972        N973   1.438       .  S
N973        H977   1.046       .  S
N973        H978   1.045       .  S
N976        H979   1.042       .  S
N976        H980   1.046       .  S
C981        C982   1.396   1_455  A
C981        C986   1.405       .  A
C981        H988   1.084       .  S
C982       C1991   1.405       .  A
C983       C1990   1.405       .  A
C983        C984   1.405       .  A
C983        N990   1.437       .  S
C984       C1993   1.409       .  A
C984        H989   1.083       .  S
C985       C1992   1.409   1_455  A
C985        C986   1.422       .  A
C986        N987   1.438       .  S
N987        H991   1.046       .  S
N987        H992   1.046       .  S
N990        H993   1.046       .  S
N990        H994   1.046       .  S
C995       C2004   1.408       .  A
C995       C1000   1.402       .  A
C995       H1002   1.083       .  S
C996       C2003   1.408   1_455  A
C996        C997   1.421       .  A
C997        C998   1.404       .  A
C997       N1004   1.438       .  S
C998       C2007   1.397   1_455  A
C998       H1003   1.084       .  S
C999       C2006   1.397       .  A
C999       C1000   1.413       .  A
C1000      N1001   1.439       .  S
N1001      H1005   1.046       .  S
N1001      H1006   1.043       .  S
N1004      H1007   1.046       .  S
N1004      H1008   1.046       .  S
O1009     Ni1017   1.913       .  S
O1009      C1019   1.280   1_565  A
O1010      C1020   1.281       .  A
O1011     Ni1521   1.917       .  S
O1013      C1022   1.279       .  A
O1014     Ni1018   1.915       .  S
O1014      C1021   1.280       .  A
O1015     Ni1522   1.920       .  S
O1015      C1524   1.283   1_545  A
O1016      C1523   1.282       .  A
Ni1017     O1515   1.917       .  S
Ni1018     O1519   1.919       .  S
C1019      O1520   1.282       .  A
C1019      C1223   1.481       .  S
C1020      O1519   1.283       .  A
C1020      C1206   1.487       .  S
C1021      C1234   1.466       .  S
C1022      C1251   1.466       .  S
O1023     Ni1031   1.925       .  S
O1024     Ni1031   1.921       .  S
O1025     Ni1031   1.913       .  S
O1025      C1035   1.279   1_655  A
O1026     Ni1031   1.915       .  S
O1026      C1036   1.280       .  A
O1027     Ni1032   1.917       .  S
O1028     Ni1032   1.918       .  S
O1029     Ni1032   1.912       .  S
O1029      C1034   1.280       .  A
O1030     Ni1032   1.907       .  S
O1030      C1033   1.279       .  A
C1033      C1248   1.492       .  S
C1034      C1237   1.492       .  S
C1035      C1195   1.466       .  S
C1036      C1181   1.479       .  S
O1037     Ni1045   1.917       .  S
O1037      C1551   1.281       .  A
O1038     Ni1045   1.915       .  S
O1038      C1552   1.280   1_545  A
O1039     Ni1045   1.915       .  S
O1039      C1049   1.282   1_545  A
O1040     Ni1045   1.920       .  S
O1040      C1050   1.282       .  A
O1041     Ni1046   1.912       .  S
O1041      C1554   1.280       .  A
O1042     Ni1046   1.917       .  S
O1042      C1553   1.281       .  A
O1043     Ni1046   1.917       .  S
O1043      C1048   1.281       .  A
O1044     Ni1046   1.915       .  S
O1044      C1047   1.280       .  A
Ni1045    Ni1550   2.390   1_545  S
Ni1046    Ni1549   2.390       .  S
C1047      O1541   1.281       .  A
C1047      C1220   1.471       .  S
C1048      O1542   1.280       .  A
C1048      C1209   1.470       .  S
C1049      O1546   1.281       .  A
C1049      C1153   1.490       .  S
C1050      O1545   1.280   1_545  A
C1050      C1167   1.471       .  S
O1051     Ni1311   1.918   1_545  S
O1051      C1061   1.281       .  A
O1052     Ni1563   1.920       .  S
O1052      C1062   1.283   1_554  A
O1053     Ni1059   1.916   1_545  S
O1053      C1567   1.281       .  A
O1054     Ni1815   1.917       .  S
O1054      C1568   1.280       .  A
O1055     Ni1564   1.915       .  S
O1055      C1064   1.279       .  A
O1056     Ni1312   1.917   1_554  S
O1056      C1063   1.281       .  A
O1057     Ni1060   1.914       .  S
O1057      C1314   1.280       .  A
O1058     Ni1816   1.915   1_554  S
O1058      C1313   1.282       .  A
Ni1059     O1303   1.918   1_565  S
Ni1059     O1556   1.920       .  S
Ni1059     O1810   1.917   1_554  S
Ni1059    Ni1816   2.386   1_564  S
Ni1060     O1559   1.915       .  S
Ni1060     O1308   1.917       .  S
Ni1060     O1814   1.915       .  S
Ni1060    Ni1815   2.386       .  S
C1061      O1310   1.282       .  A
C1061      C1136   1.492       .  S
C1062      O1309   1.280       .  A
C1062      C1125   1.489       .  S
C1063      O1557   1.281       .  A
C1063      C1668   1.481       .  S
C1064      O1558   1.280   1_545  A
C1064      C1150   1.467       .  S
O1065     Ni1325   1.913   1_655  S
O1065      C1075   1.281       .  A
O1066      C1076   1.280       .  A
O1067     Ni1073   1.919       .  S
O1069      C1078   1.283       .  A
O1070     Ni1326   1.915       .  S
O1070      C1077   1.280       .  A
O1071     Ni1074   1.914       .  S
O1071      C1328   1.280       .  A
O1072      C1327   1.281       .  A
Ni1073     O1317   1.914   1_455  S
Ni1074     O1322   1.916       .  S
C1075      O1324   1.281   1_556  A
C1075      C1097   1.489       .  S
C1076      O1323   1.280       .  A
C1076      C1111   1.467       .  S
C1077      C1178   1.476       .  S
C1078      C1192   1.491       .  S
O1079     Ni1087   1.919       .  S
O1079      C1341   1.281       .  A
O1080     Ni1087   1.915       .  S
O1080      C1342   1.280   1_554  A
O1081     Ni1087   1.913       .  S
O1081      C1091   1.280       .  A
O1082     Ni1087   1.917       .  S
O1082      C1092   1.281   1_554  A
O1083     Ni1088   1.917       .  S
O1083      C1344   1.280       .  A
O1084     Ni1088   1.917       .  S
O1084      C1343   1.283       .  A
O1085     Ni1088   1.917       .  S
O1085      C1090   1.280       .  A
O1086     Ni1088   1.915       .  S
O1086      C1089   1.279       .  A
Ni1087    Ni1340   2.391   1_554  S
Ni1088    Ni1339   2.391       .  S
C1089      O1331   1.281       .  A
C1089      C1139   1.467       .  S
C1090      O1332   1.280       .  A
C1090      C1374   1.469       .  S
C1091      O1336   1.283   1_554  A
C1091      C1108   1.487       .  S
C1092      O1335   1.280       .  A
C1092      C1094   1.469       .  S
C1093      C1346   1.399       .  A
C1093      C1098   1.406       .  A
C1093      H1100   1.082       .  S
C1094      C1345   1.399       .  A
C1094      C1095   1.413   1_556  A
C1095      C1096   1.400       .  A
C1095      N1102   1.439       .  S
C1096      C1097   1.408   1_554  A
C1096      H1101   1.084       .  S
C1097      C1350   1.417       .  A
C1098      C1349   1.418       .  A
C1098      N1099   1.438       .  S
N1099      H1103   1.046       .  S
N1099      H1104   1.046       .  S
N1102      H1105   1.043       .  S
N1102      H1106   1.046   1_554  S
C1107      C1360   1.408       .  A
C1107      C1112   1.403       .  A
C1107      H1114   1.083       .  S
C1108      C1359   1.408   1_554  A
C1108      C1109   1.420       .  A
C1109      C1110   1.406       .  A
C1109      N1116   1.438       .  S
C1110      C1363   1.398   1_554  A
C1110      H1115   1.084       .  S
C1111      C1362   1.398       .  A
C1111      C1112   1.404       .  A
C1112      N1113   1.437       .  S
N1113      H1117   1.046       .  S
N1113      H1118   1.046       .  S
N1116      H1119   1.045       .  S
N1116      H1120   1.046       .  S
C1121      C1374   1.399       .  A
C1121      C1126   1.406       .  A
C1121      H1128   1.084       .  S
C1122      C1342   1.469       .  S
C1122      C1373   1.399       .  A
C1122      C1123   1.414   1_556  A
C1123      C1124   1.401       .  A
C1123      N1130   1.440       .  S
C1124      C1125   1.407   1_554  A
C1124      H1129   1.084       .  S
C1125      C1378   1.418       .  A
C1126      C1377   1.418       .  A
C1126      N1127   1.438       .  S
N1127      H1131   1.046       .  S
N1127      H1132   1.045       .  S
N1130      H1133   1.043       .  S
N1130      H1134   1.046       .  S
C1135      C1136   1.409       .  A
C1135      C1140   1.403       .  A
C1135      H1142   1.083       .  S
C1136      C1389   1.420       .  A
C1137      C1388   1.420       .  A
C1137      C1138   1.407       .  A
C1137      N1144   1.438       .  S
C1138      C1391   1.399       .  A
C1138      H1143   1.084       .  S
C1139      C1390   1.399       .  A
C1139      C1140   1.404       .  A
C1140      N1141   1.437       .  S
N1141      H1145   1.046       .  S
N1141      H1146   1.046       .  S
N1144      H1147   1.046   1_554  S
N1144      H1148   1.046       .  S
C1149      C1654   1.399       .  A
C1149      C1154   1.406       .  A
C1149      H1156   1.084       .  S
C1150      C1653   1.399   1_545  A
C1150      C1151   1.412       .  A
C1151      C1152   1.400       .  A
C1151      N1158   1.439       .  S
C1152      C1153   1.408   1_545  A
C1152      H1157   1.084       .  S
C1153      C1658   1.419       .  A
C1154      C1657   1.419       .  A
C1154      N1155   1.438       .  S
N1155      H1159   1.046       .  S
N1155      H1160   1.046       .  S
N1158      H1161   1.043       .  S
N1158      H1162   1.045       .  S
C1163      C1164   1.405       .  A
C1163      C1168   1.401       .  A
C1163      H1170   1.084       .  S
C1164      C1567   1.481       .  S
C1164      C1669   1.413   1_545  A
C1165      C1668   1.413       .  A
C1165      C1166   1.405       .  A
C1165      N1172   1.438       .  S
C1166      C1671   1.402       .  A
C1166      H1171   1.084       .  S
C1167      C1670   1.402   1_545  A
C1167      C1168   1.416       .  A
C1168      N1169   1.439       .  S
N1169      H1173   1.045       .  S
N1169      H1174   1.043       .  S
N1172      H1175   1.046       .  S
N1172      H1176   1.046       .  S
C1177      C1182   1.406       .  A
C1177      H1184   1.084       .  S
C1178      C1179   1.411       .  A
C1179      C1180   1.405       .  A
C1179      N1186   1.437       .  S
C1180      H1185   1.084       .  S
C1181      C1182   1.413       .  A
C1182      N1183   1.438       .  S
N1183      H1187   1.046       .  S
N1183      H1188   1.045       .  S
N1186      H1189   1.045       .  S
N1186      H1190   1.046       .  S
C1191      C1196   1.405       .  A
C1191      H1198   1.083       .  S
C1192      C1193   1.421   1_455  A
C1193      C1194   1.406       .  A
C1193      N1200   1.438       .  S
C1194      C1195   1.397   1_655  A
C1194      H1199   1.084       .  S
C1196      N1197   1.438       .  S
N1197      H1201   1.046       .  S
N1197      H1202   1.046       .  S
N1200      H1203   1.046   1_655  S
N1200      H1204   1.046       .  S
C1205      C1710   1.406   1_545  A
C1205      C1210   1.401       .  A
C1205      H1212   1.084       .  S
C1206      C1709   1.406       .  A
C1206      C1207   1.416       .  A
C1207      C1208   1.406       .  A
C1207      N1214   1.438       .  S
C1208      C1209   1.400       .  A
C1208      H1213   1.084       .  S
C1209      C1714   1.415       .  A
C1210      C1713   1.415   1_545  A
C1210      N1211   1.439       .  S
N1211      H1215   1.045       .  S
N1211      H1216   1.043       .  S
N1214      H1217   1.046       .  S
N1214      H1218   1.046       .  S
C1219      C1220   1.401       .  A
C1219      C1224   1.405       .  A
C1219      H1226   1.084       .  S
C1220      C1725   1.416       .  A
C1221      C1724   1.416       .  A
C1221      C1222   1.400       .  A
C1221      N1228   1.439       .  S
C1222      C1223   1.404       .  A
C1222      H1227   1.084       .  S
C1223      C1728   1.414   1_545  A
C1224      C1727   1.414       .  A
C1224      N1225   1.438       .  S
N1225      H1229   1.046       .  S
N1225      H1230   1.044       .  S
N1228      H1231   1.042       .  S
N1228      H1232   1.046       .  S
C1233      C1234   1.396       .  A
C1233      C1238   1.406       .  A
C1233      H1240   1.084       .  S
C1235      C1236   1.405       .  A
C1235      N1242   1.437       .  S
C1236      H1241   1.083       .  S
C1237      C1238   1.422       .  A
C1238      N1239   1.438       .  S
N1239      H1243   1.046       .  S
N1239      H1244   1.046       .  S
N1242      H1245   1.046       .  S
N1242      H1246   1.046       .  S
C1247      C1252   1.402       .  A
C1247      H1254   1.083       .  S
C1248      C1249   1.421       .  A
C1249      C1250   1.404       .  A
C1249      N1256   1.438       .  S
C1250      H1255   1.084       .  S
C1251      C1252   1.413       .  A
C1252      N1253   1.439       .  S
N1253      H1257   1.046       .  S
N1253      H1258   1.043       .  S
N1256      H1259   1.046       .  S
N1256      H1260   1.046       .  S
O1261     Ni1269   1.913       .  S
O1261      C1271   1.280   1_565  A
O1262      C1272   1.281       .  A
O1263     Ni1773   1.917       .  S
O1265      C1274   1.279       .  A
O1266     Ni1270   1.915       .  S
O1266      C1273   1.280       .  A
O1267     Ni1774   1.920       .  S
O1267      C1776   1.283   1_545  A
O1268      C1775   1.282       .  A
Ni1269     O1767   1.917       .  S
Ni1270     O1771   1.919       .  S
C1271      O1772   1.282       .  A
C1271      C1475   1.481       .  S
C1272      O1771   1.283       .  A
C1272      C1458   1.487       .  S
C1273      C1486   1.466       .  S
C1274      C1503   1.466       .  S
O1275     Ni1283   1.925       .  S
O1276     Ni1283   1.921       .  S
O1277     Ni1283   1.913       .  S
O1277      C1287   1.279   1_655  A
O1278     Ni1283   1.915       .  S
O1278      C1288   1.280       .  A
O1279     Ni1284   1.917       .  S
O1280     Ni1284   1.918       .  S
O1281     Ni1284   1.912       .  S
O1281      C1286   1.280       .  A
O1282     Ni1284   1.907       .  S
O1282      C1285   1.279       .  A
C1285      C1500   1.492       .  S
C1286      C1489   1.492       .  S
C1287      C1447   1.466       .  S
C1288      C1433   1.479       .  S
O1289     Ni1297   1.917       .  S
O1289      C1803   1.281       .  A
O1290     Ni1297   1.915       .  S
O1290      C1804   1.280   1_545  A
O1291     Ni1297   1.915       .  S
O1291      C1301   1.282   1_545  A
O1292     Ni1297   1.920       .  S
O1292      C1302   1.282       .  A
O1293     Ni1298   1.912       .  S
O1293      C1806   1.280       .  A
O1294     Ni1298   1.917       .  S
O1294      C1805   1.281       .  A
O1295     Ni1298   1.917       .  S
O1295      C1300   1.281       .  A
O1296     Ni1298   1.915       .  S
O1296      C1299   1.280       .  A
Ni1297    Ni1802   2.390   1_545  S
Ni1298    Ni1801   2.390       .  S
C1299      O1793   1.281       .  A
C1299      C1472   1.471       .  S
C1300      O1794   1.280       .  A
C1300      C1461   1.470       .  S
C1301      O1798   1.281       .  A
C1301      C1405   1.490       .  S
C1302      O1797   1.280   1_545  A
C1302      C1419   1.471       .  S
O1303      C1313   1.281       .  A
O1304     Ni1815   1.920       .  S
O1304      C1314   1.283       .  A
O1305     Ni1311   1.916   1_545  S
O1305      C1819   1.281       .  A
O1306     Ni1563   1.917   1_556  S
O1306      C1820   1.280       .  A
O1307     Ni1816   1.914       .  S
O1307      C1316   1.279       .  A
O1308      C1315   1.281       .  A
O1309     Ni1312   1.914       .  S
O1310     Ni1564   1.915       .  S
Ni1311     O1808   1.920       .  S
Ni1311     O1558   1.917       .  S
Ni1311    Ni1564   2.386   1_565  S
Ni1312     O1811   1.914       .  S
Ni1312     O1562   1.915   1_556  S
Ni1312    Ni1563   2.386   1_556  S
C1313      C1388   1.492       .  S
C1314      C1377   1.489       .  S
C1315      O1809   1.281       .  A
C1315      C1920   1.481       .  S
C1316      O1810   1.280   1_545  A
C1316      C1402   1.467       .  S
O1317      C1327   1.281       .  A
O1318      C1328   1.280       .  A
O1319     Ni1325   1.918       .  S
O1321      C1330   1.283       .  A
O1322      C1329   1.280       .  A
O1323     Ni1326   1.914       .  S
C1327      C1349   1.489       .  S
C1328      C1363   1.467       .  S
C1329      C1430   1.476       .  S
C1330      C1444   1.491       .  S
O1331     Ni1339   1.919       .  S
O1332     Ni1339   1.915       .  S
O1333     Ni1339   1.913       .  S
O1333      C1343   1.280       .  A
O1334     Ni1339   1.917       .  S
O1334      C1344   1.281       .  A
O1335     Ni1340   1.917       .  S
O1336     Ni1340   1.917       .  S
O1337     Ni1340   1.917       .  S
O1337      C1342   1.280       .  A
O1338     Ni1340   1.915       .  S
O1338      C1341   1.279   1_556  A
C1341      C1391   1.468       .  S
C1343      C1360   1.487       .  S
C1344      C1346   1.469       .  S
C1345      C1350   1.406       .  A
C1345      H1352   1.082       .  S
C1346      C1347   1.413       .  A
C1347      C1348   1.400       .  A
C1347      N1354   1.439       .  S
C1348      C1349   1.408       .  A
C1348      H1353   1.084       .  S
C1350      N1351   1.438       .  S
N1351      H1355   1.046       .  S
N1351      H1356   1.045   1_556  S
N1354      H1357   1.043       .  S
N1354      H1358   1.046       .  S
C1359      C1364   1.403       .  A
C1359      H1366   1.083       .  S
C1360      C1361   1.420       .  A
C1361      C1362   1.406       .  A
C1361      N1368   1.438       .  S
C1362      H1367   1.084       .  S
C1363      C1364   1.404       .  A
C1364      N1365   1.437       .  S
N1365      H1369   1.046       .  S
N1365      H1370   1.046       .  S
N1368      H1371   1.045       .  S
N1368      H1372   1.046       .  S
C1373      C1378   1.406       .  A
C1373      H1380   1.084       .  S
C1374      C1375   1.414       .  A
C1375      C1376   1.401       .  A
C1375      N1382   1.440       .  S
C1376      C1377   1.407       .  A
C1376      H1381   1.084       .  S
C1378      N1379   1.438       .  S
N1379      H1383   1.046       .  S
N1379      H1384   1.045       .  S
N1382      H1385   1.043       .  S
N1382      H1386   1.046       .  S
C1387      C1388   1.409   1_556  A
C1387      C1392   1.403       .  A
C1387      H1394   1.083       .  S
C1389      C1390   1.407       .  A
C1389      N1396   1.438       .  S
C1390      H1395   1.084       .  S
C1391      C1392   1.403   1_554  A
C1392      N1393   1.437       .  S
N1393      H1397   1.046       .  S
N1393      H1398   1.046   1_556  S
N1396      H1399   1.046       .  S
N1396      H1400   1.046       .  S
C1401      C1906   1.399       .  A
C1401      C1406   1.406       .  A
C1401      H1408   1.084       .  S
C1402      C1905   1.399   1_545  A
C1402      C1403   1.412       .  A
C1403      C1404   1.400       .  A
C1403      N1410   1.439       .  S
C1404      C1405   1.408   1_545  A
C1404      H1409   1.084       .  S
C1405      C1910   1.419       .  A
C1406      C1909   1.419       .  A
C1406      N1407   1.438       .  S
N1407      H1411   1.046       .  S
N1407      H1412   1.046       .  S
N1410      H1413   1.043       .  S
N1410      H1414   1.045       .  S
C1415      C1416   1.405       .  A
C1415      C1420   1.401       .  A
C1415      H1422   1.084       .  S
C1416      C1819   1.481       .  S
C1416      C1921   1.413   1_545  A
C1417      C1920   1.413       .  A
C1417      C1418   1.405       .  A
C1417      N1424   1.438       .  S
C1418      C1923   1.402       .  A
C1418      H1423   1.084       .  S
C1419      C1922   1.402   1_545  A
C1419      C1420   1.416       .  A
C1420      N1421   1.439       .  S
N1421      H1425   1.045       .  S
N1421      H1426   1.043       .  S
N1424      H1427   1.046       .  S
N1424      H1428   1.046       .  S
C1429      C1434   1.406       .  A
C1429      H1436   1.084       .  S
C1430      C1431   1.411       .  A
C1431      C1432   1.404       .  A
C1431      N1438   1.437       .  S
C1432      H1437   1.084       .  S
C1433      C1434   1.413       .  A
C1434      N1435   1.438       .  S
N1435      H1439   1.046       .  S
N1435      H1440   1.045       .  S
N1438      H1441   1.045       .  S
N1438      H1442   1.046       .  S
C1443      C1448   1.405       .  A
C1443      H1450   1.083       .  S
C1444      C1445   1.420   1_455  A
C1445      C1446   1.406       .  A
C1445      N1452   1.438       .  S
C1446      C1447   1.397   1_655  A
C1446      H1451   1.084       .  S
C1448      N1449   1.438       .  S
N1449      H1453   1.046       .  S
N1449      H1454   1.046       .  S
N1452      H1455   1.046   1_655  S
N1452      H1456   1.046       .  S
C1457      C1962   1.406   1_545  A
C1457      C1462   1.401       .  A
C1457      H1464   1.084       .  S
C1458      C1961   1.406       .  A
C1458      C1459   1.416       .  A
C1459      C1460   1.406       .  A
C1459      N1466   1.438       .  S
C1460      C1461   1.400       .  A
C1460      H1465   1.084       .  S
C1461      C1966   1.415       .  A
C1462      C1965   1.415   1_545  A
C1462      N1463   1.439       .  S
N1463      H1467   1.045       .  S
N1463      H1468   1.043       .  S
N1466      H1469   1.046       .  S
N1466      H1470   1.046       .  S
C1471      C1472   1.401       .  A
C1471      C1476   1.405       .  A
C1471      H1478   1.084       .  S
C1472      C1977   1.416       .  A
C1473      C1976   1.416       .  A
C1473      C1474   1.400       .  A
C1473      N1480   1.439       .  S
C1474      C1475   1.404       .  A
C1474      H1479   1.084       .  S
C1475      C1980   1.414   1_545  A
C1476      C1979   1.414       .  A
C1476      N1477   1.438       .  S
N1477      H1481   1.046       .  S
N1477      H1482   1.044       .  S
N1480      H1483   1.042       .  S
N1480      H1484   1.046       .  S
C1485      C1486   1.396       .  A
C1485      C1490   1.406       .  A
C1485      H1492   1.084       .  S
C1487      C1488   1.405       .  A
C1487      N1494   1.437       .  S
C1488      H1493   1.083       .  S
C1489      C1490   1.422       .  A
C1490      N1491   1.438       .  S
N1491      H1495   1.046       .  S
N1491      H1496   1.046       .  S
N1494      H1497   1.046       .  S
N1494      H1498   1.046       .  S
C1499      C1504   1.402       .  A
C1499      H1506   1.083       .  S
C1500      C1501   1.421       .  A
C1501      C1502   1.404       .  A
C1501      N1508   1.438       .  S
C1502      H1507   1.084       .  S
C1503      C1504   1.413       .  A
C1504      N1505   1.439       .  S
N1505      H1509   1.046       .  S
N1505      H1510   1.043       .  S
N1508      H1511   1.046       .  S
N1508      H1512   1.046       .  S
O1513     Ni1521   1.913       .  S
O1513      C1523   1.280       .  A
O1514      C1524   1.281       .  A
O1517      C1526   1.279       .  A
O1518     Ni1522   1.915   1_565  S
O1518      C1525   1.280       .  A
C1523      C1727   1.481       .  S
C1524      C1710   1.487       .  S
C1525      C1738   1.466       .  S
C1526      C1755   1.466       .  S
O1527     Ni1535   1.925       .  S
O1528     Ni1535   1.921       .  S
O1529     Ni1535   1.913       .  S
O1529      C1539   1.279   1_655  A
O1530     Ni1535   1.915       .  S
O1530      C1540   1.280       .  A
O1531     Ni1536   1.917       .  S
O1532     Ni1536   1.918       .  S
O1533     Ni1536   1.912       .  S
O1533      C1538   1.280       .  A
O1534     Ni1536   1.907       .  S
O1534      C1537   1.279       .  A
C1537      C1752   1.492       .  S
C1538      C1741   1.492       .  S
C1539      C1699   1.466       .  S
C1540      C1685   1.479       .  S
O1541     Ni1549   1.917       .  S
O1542     Ni1549   1.915       .  S
O1543     Ni1549   1.915       .  S
O1543      C1553   1.282       .  A
O1544     Ni1549   1.920       .  S
O1544      C1554   1.282       .  A
O1545     Ni1550   1.912       .  S
O1546     Ni1550   1.917       .  S
O1547     Ni1550   1.917       .  S
O1547      C1552   1.281       .  A
O1548     Ni1550   1.915       .  S
O1548      C1551   1.280   1_565  A
C1551      C1724   1.471       .  S
C1552      C1713   1.470       .  S
C1553      C1657   1.490       .  S
C1554      C1671   1.471       .  S
O1555     Ni1815   1.918       .  S
O1555      C1565   1.281       .  A
O1556      C1566   1.283   1_554  A
O1557     Ni1563   1.916       .  S
O1559      C1568   1.279       .  A
O1560     Ni1816   1.916   1_554  S
O1560      C1567   1.281       .  A
O1561     Ni1564   1.914   1_565  S
O1561      C1818   1.280       .  A
O1562      C1817   1.282       .  A
Ni1563     O1807   1.918       .  S
Ni1564     O1812   1.917       .  S
C1565      O1814   1.282       .  A
C1565      C1640   1.492       .  S
C1566      O1813   1.280       .  A
C1566      C1629   1.489       .  S
C1568      C1654   1.467       .  S
O1569     Ni1829   1.913   1_655  S
O1569      C1579   1.281       .  A
O1570      C1580   1.280       .  A
O1571     Ni1577   1.919       .  S
O1573      C1582   1.283       .  A
O1574     Ni1830   1.915       .  S
O1574      C1581   1.280       .  A
O1575     Ni1578   1.914       .  S
O1575      C1832   1.280       .  A
O1576      C1831   1.281       .  A
Ni1577     O1821   1.914   1_455  S
Ni1578     O1826   1.916       .  S
C1579      O1828   1.281   1_556  A
C1579      C1601   1.489       .  S
C1580      O1827   1.280       .  A
C1580      C1615   1.467       .  S
C1581      C1682   1.476       .  S
C1582      C1696   1.491       .  S
O1583     Ni1591   1.919       .  S
O1583      C1845   1.281       .  A
O1584     Ni1591   1.915       .  S
O1584      C1846   1.280   1_554  A
O1585     Ni1591   1.913       .  S
O1585      C1595   1.280       .  A
O1586     Ni1591   1.917       .  S
O1586      C1596   1.281   1_554  A
O1587     Ni1592   1.917       .  S
O1587      C1848   1.280       .  A
O1588     Ni1592   1.917       .  S
O1588      C1847   1.283       .  A
O1589     Ni1592   1.917       .  S
O1589      C1594   1.280       .  A
O1590     Ni1592   1.915       .  S
O1590      C1593   1.279       .  A
Ni1591    Ni1844   2.391   1_554  S
Ni1592    Ni1843   2.391       .  S
C1593      O1835   1.281       .  A
C1593      C1643   1.467       .  S
C1594      O1836   1.280       .  A
C1594      C1878   1.469       .  S
C1595      O1840   1.283   1_554  A
C1595      C1612   1.487       .  S
C1596      O1839   1.280       .  A
C1596      C1598   1.469       .  S
C1597      C1850   1.399       .  A
C1597      C1602   1.406       .  A
C1597      H1604   1.082       .  S
C1598      C1849   1.399       .  A
C1598      C1599   1.413   1_556  A
C1599      C1600   1.400       .  A
C1599      N1606   1.439       .  S
C1600      C1601   1.408   1_554  A
C1600      H1605   1.084       .  S
C1601      C1854   1.417       .  A
C1602      C1853   1.418       .  A
C1602      N1603   1.438       .  S
N1603      H1607   1.046       .  S
N1603      H1608   1.046       .  S
N1606      H1609   1.043       .  S
N1606      H1610   1.046   1_554  S
C1611      C1864   1.408       .  A
C1611      C1616   1.403       .  A
C1611      H1618   1.083       .  S
C1612      C1863   1.408   1_554  A
C1612      C1613   1.420       .  A
C1613      C1614   1.406       .  A
C1613      N1620   1.438       .  S
C1614      C1867   1.398   1_554  A
C1614      H1619   1.084       .  S
C1615      C1866   1.398       .  A
C1615      C1616   1.404       .  A
C1616      N1617   1.437       .  S
N1617      H1621   1.046       .  S
N1617      H1622   1.046       .  S
N1620      H1623   1.045       .  S
N1620      H1624   1.046       .  S
C1625      C1878   1.399       .  A
C1625      C1630   1.406       .  A
C1625      H1632   1.084       .  S
C1626      C1846   1.469       .  S
C1626      C1877   1.399       .  A
C1626      C1627   1.414   1_556  A
C1627      C1628   1.401       .  A
C1627      N1634   1.440       .  S
C1628      C1629   1.407   1_554  A
C1628      H1633   1.084       .  S
C1629      C1882   1.418       .  A
C1630      C1881   1.418       .  A
C1630      N1631   1.438       .  S
N1631      H1635   1.046       .  S
N1631      H1636   1.045       .  S
N1634      H1637   1.043       .  S
N1634      H1638   1.046       .  S
C1639      C1640   1.409       .  A
C1639      C1644   1.403       .  A
C1639      H1646   1.083       .  S
C1640      C1893   1.420       .  A
C1641      C1892   1.420       .  A
C1641      C1642   1.407       .  A
C1641      N1648   1.438       .  S
C1642      C1895   1.399       .  A
C1642      H1647   1.084       .  S
C1643      C1894   1.399       .  A
C1643      C1644   1.404       .  A
C1644      N1645   1.437       .  S
N1645      H1649   1.046       .  S
N1645      H1650   1.046       .  S
N1648      H1651   1.046   1_554  S
N1648      H1652   1.046       .  S
C1653      C1658   1.406       .  A
C1653      H1660   1.084       .  S
C1654      C1655   1.412       .  A
C1655      C1656   1.400       .  A
C1655      N1662   1.439       .  S
C1656      C1657   1.408       .  A
C1656      H1661   1.084       .  S
C1658      N1659   1.438       .  S
N1659      H1663   1.046       .  S
N1659      H1664   1.046       .  S
N1662      H1665   1.043       .  S
N1662      H1666   1.045       .  S
C1667      C1668   1.405       .  A
C1667      C1672   1.401       .  A
C1667      H1674   1.084       .  S
C1669      C1670   1.405       .  A
C1669      N1676   1.438       .  S
C1670      H1675   1.084       .  S
C1671      C1672   1.416       .  A
C1672      N1673   1.439       .  S
N1673      H1677   1.045       .  S
N1673      H1678   1.043       .  S
N1676      H1679   1.046       .  S
N1676      H1680   1.046       .  S
C1681      C1686   1.406       .  A
C1681      H1688   1.084       .  S
C1682      C1683   1.411       .  A
C1683      C1684   1.405       .  A
C1683      N1690   1.437       .  S
C1684      H1689   1.084       .  S
C1685      C1686   1.413       .  A
C1686      N1687   1.438       .  S
N1687      H1691   1.046       .  S
N1687      H1692   1.045       .  S
N1690      H1693   1.045       .  S
N1690      H1694   1.046       .  S
C1695      C1700   1.405       .  A
C1695      H1702   1.083       .  S
C1696      C1697   1.421   1_455  A
C1697      C1698   1.406       .  A
C1697      N1704   1.438       .  S
C1698      C1699   1.397   1_655  A
C1698      H1703   1.084       .  S
C1700      N1701   1.438       .  S
N1701      H1705   1.046       .  S
N1701      H1706   1.046       .  S
N1704      H1707   1.046   1_655  S
N1704      H1708   1.046       .  S
C1709      C1714   1.401       .  A
C1709      H1716   1.084       .  S
C1710      C1711   1.416       .  A
C1711      C1712   1.406       .  A
C1711      N1718   1.438       .  S
C1712      C1713   1.400       .  A
C1712      H1717   1.084       .  S
C1714      N1715   1.439       .  S
N1715      H1719   1.045       .  S
N1715      H1720   1.043       .  S
N1718      H1721   1.046       .  S
N1718      H1722   1.046       .  S
C1723      C1724   1.401   1_565  A
C1723      C1728   1.405       .  A
C1723      H1730   1.084       .  S
C1725      C1726   1.400       .  A
C1725      N1732   1.439       .  S
C1726      C1727   1.404       .  A
C1726      H1731   1.084       .  S
C1728      N1729   1.438       .  S
N1729      H1733   1.046       .  S
N1729      H1734   1.045       .  S
N1732      H1735   1.042       .  S
N1732      H1736   1.046       .  S
C1737      C1738   1.396       .  A
C1737      C1742   1.405       .  A
C1737      H1744   1.084       .  S
C1739      C1740   1.405       .  A
C1739      N1746   1.437       .  S
C1740      H1745   1.083       .  S
C1741      C1742   1.422       .  A
C1742      N1743   1.438       .  S
N1743      H1747   1.046       .  S
N1743      H1748   1.046       .  S
N1746      H1749   1.046       .  S
N1746      H1750   1.046       .  S
C1751      C1756   1.402       .  A
C1751      H1758   1.083       .  S
C1752      C1753   1.421       .  A
C1753      C1754   1.404       .  A
C1753      N1760   1.438       .  S
C1754      H1759   1.084       .  S
C1755      C1756   1.413       .  A
C1756      N1757   1.439       .  S
N1757      H1761   1.046       .  S
N1757      H1762   1.043       .  S
N1760      H1763   1.046       .  S
N1760      H1764   1.046       .  S
O1765     Ni1773   1.913       .  S
O1765      C1775   1.280       .  A
O1766      C1776   1.281       .  A
O1769      C1778   1.279       .  A
O1770     Ni1774   1.915   1_565  S
O1770      C1777   1.280       .  A
C1775      C1979   1.481       .  S
C1776      C1962   1.487       .  S
C1777      C1990   1.466       .  S
C1778      C2007   1.466       .  S
O1779     Ni1787   1.925       .  S
O1780     Ni1787   1.921       .  S
O1781     Ni1787   1.913       .  S
O1781      C1791   1.279   1_655  A
O1782     Ni1787   1.915       .  S
O1782      C1792   1.280       .  A
O1783     Ni1788   1.917       .  S
O1784     Ni1788   1.918       .  S
O1785     Ni1788   1.912       .  S
O1785      C1790   1.280       .  A
O1786     Ni1788   1.907       .  S
O1786      C1789   1.279       .  A
C1789      C2004   1.492       .  S
C1790      C1993   1.492       .  S
C1791      C1951   1.466       .  S
C1792      C1937   1.479       .  S
O1793     Ni1801   1.917       .  S
O1794     Ni1801   1.915       .  S
O1795     Ni1801   1.915       .  S
O1795      C1805   1.282       .  A
O1796     Ni1801   1.920       .  S
O1796      C1806   1.282       .  A
O1797     Ni1802   1.912       .  S
O1798     Ni1802   1.917       .  S
O1799     Ni1802   1.917       .  S
O1799      C1804   1.281       .  A
O1800     Ni1802   1.915       .  S
O1800      C1803   1.280   1_565  A
C1803      C1976   1.471       .  S
C1804      C1965   1.470       .  S
C1805      C1909   1.490       .  S
C1806      C1923   1.471       .  S
O1807      C1817   1.281       .  A
O1808      C1818   1.283       .  A
O1809     Ni1815   1.916       .  S
O1811      C1820   1.279       .  A
O1812      C1819   1.281       .  A
O1813     Ni1816   1.914   1_565  S
C1817      C1892   1.492       .  S
C1818      C1881   1.489       .  S
C1820      C1906   1.467       .  S
O1821      C1831   1.281       .  A
O1822      C1832   1.280       .  A
O1823     Ni1829   1.918       .  S
O1825      C1834   1.283       .  A
O1826      C1833   1.280       .  A
O1827     Ni1830   1.914       .  S
C1831      C1853   1.489       .  S
C1832      C1867   1.467       .  S
C1833      C1934   1.476       .  S
C1834      C1948   1.491       .  S
O1835     Ni1843   1.919       .  S
O1836     Ni1843   1.915       .  S
O1837     Ni1843   1.913       .  S
O1837      C1847   1.280       .  A
O1838     Ni1843   1.917       .  S
O1838      C1848   1.281       .  A
O1839     Ni1844   1.917       .  S
O1840     Ni1844   1.917       .  S
O1841     Ni1844   1.917       .  S
O1841      C1846   1.280       .  A
O1842     Ni1844   1.915       .  S
O1842      C1845   1.279   1_556  A
C1845      C1895   1.468       .  S
C1847      C1864   1.487       .  S
C1848      C1850   1.469       .  S
C1849      C1854   1.406       .  A
C1849      H1856   1.082       .  S
C1850      C1851   1.413       .  A
C1851      C1852   1.400       .  A
C1851      N1858   1.439       .  S
C1852      C1853   1.408       .  A
C1852      H1857   1.084       .  S
C1854      N1855   1.438       .  S
N1855      H1859   1.046       .  S
N1855      H1860   1.045   1_556  S
N1858      H1861   1.043       .  S
N1858      H1862   1.046       .  S
C1863      C1868   1.403       .  A
C1863      H1870   1.083       .  S
C1864      C1865   1.420       .  A
C1865      C1866   1.406       .  A
C1865      N1872   1.438       .  S
C1866      H1871   1.084       .  S
C1867      C1868   1.404       .  A
C1868      N1869   1.437       .  S
N1869      H1873   1.046       .  S
N1869      H1874   1.046       .  S
N1872      H1875   1.045       .  S
N1872      H1876   1.046       .  S
C1877      C1882   1.406       .  A
C1877      H1884   1.084       .  S
C1878      C1879   1.414       .  A
C1879      C1880   1.401       .  A
C1879      N1886   1.440       .  S
C1880      C1881   1.407       .  A
C1880      H1885   1.084       .  S
C1882      N1883   1.438       .  S
N1883      H1887   1.046       .  S
N1883      H1888   1.045       .  S
N1886      H1889   1.043       .  S
N1886      H1890   1.046       .  S
C1891      C1892   1.409   1_556  A
C1891      C1896   1.403       .  A
C1891      H1898   1.083       .  S
C1893      C1894   1.407       .  A
C1893      N1900   1.438       .  S
C1894      H1899   1.084       .  S
C1895      C1896   1.403   1_554  A
C1896      N1897   1.437       .  S
N1897      H1901   1.046       .  S
N1897      H1902   1.046   1_556  S
N1900      H1903   1.046       .  S
N1900      H1904   1.046       .  S
C1905      C1910   1.406       .  A
C1905      H1912   1.084       .  S
C1906      C1907   1.412       .  A
C1907      C1908   1.400       .  A
C1907      N1914   1.439       .  S
C1908      C1909   1.408       .  A
C1908      H1913   1.084       .  S
C1910      N1911   1.438       .  S
N1911      H1915   1.046       .  S
N1911      H1916   1.046       .  S
N1914      H1917   1.043       .  S
N1914      H1918   1.045       .  S
C1919      C1920   1.405       .  A
C1919      C1924   1.401       .  A
C1919      H1926   1.084       .  S
C1921      C1922   1.405       .  A
C1921      N1928   1.438       .  S
C1922      H1927   1.084       .  S
C1923      C1924   1.416       .  A
C1924      N1925   1.439       .  S
N1925      H1929   1.045       .  S
N1925      H1930   1.043       .  S
N1928      H1931   1.046       .  S
N1928      H1932   1.046       .  S
C1933      C1938   1.406       .  A
C1933      H1940   1.084       .  S
C1934      C1935   1.411       .  A
C1935      C1936   1.404       .  A
C1935      N1942   1.437       .  S
C1936      H1941   1.084       .  S
C1937      C1938   1.413       .  A
C1938      N1939   1.438       .  S
N1939      H1943   1.046       .  S
N1939      H1944   1.045       .  S
N1942      H1945   1.045       .  S
N1942      H1946   1.046       .  S
C1947      C1952   1.405       .  A
C1947      H1954   1.083       .  S
C1948      C1949   1.420   1_455  A
C1949      C1950   1.406       .  A
C1949      N1956   1.438       .  S
C1950      C1951   1.397   1_655  A
C1950      H1955   1.084       .  S
C1952      N1953   1.438       .  S
N1953      H1957   1.046       .  S
N1953      H1958   1.046       .  S
N1956      H1959   1.046   1_655  S
N1956      H1960   1.046       .  S
C1961      C1966   1.401       .  A
C1961      H1968   1.084       .  S
C1962      C1963   1.416       .  A
C1963      C1964   1.406       .  A
C1963      N1970   1.438       .  S
C1964      C1965   1.400       .  A
C1964      H1969   1.084       .  S
C1966      N1967   1.439       .  S
N1967      H1971   1.045       .  S
N1967      H1972   1.043       .  S
N1970      H1973   1.046       .  S
N1970      H1974   1.046       .  S
C1975      C1976   1.401   1_565  A
C1975      C1980   1.405       .  A
C1975      H1982   1.084       .  S
C1977      C1978   1.400       .  A
C1977      N1984   1.439       .  S
C1978      C1979   1.404       .  A
C1978      H1983   1.084       .  S
C1980      N1981   1.438       .  S
N1981      H1985   1.046       .  S
N1981      H1986   1.045       .  S
N1984      H1987   1.042       .  S
N1984      H1988   1.046       .  S
C1989      C1990   1.396       .  A
C1989      C1994   1.405       .  A
C1989      H1996   1.084       .  S
C1991      C1992   1.405       .  A
C1991      N1998   1.437       .  S
C1992      H1997   1.083       .  S
C1993      C1994   1.422       .  A
C1994      N1995   1.438       .  S
N1995      H1999   1.046       .  S
N1995      H2000   1.046       .  S
N1998      H2001   1.046       .  S
N1998      H2002   1.046       .  S
C2003      C2008   1.402       .  A
C2003      H2010   1.083       .  S
C2004      C2005   1.421       .  A
C2005      C2006   1.404       .  A
C2005      N2012   1.438       .  S
C2006      H2011   1.084       .  S
C2007      C2008   1.413       .  A
C2008      N2009   1.439       .  S
N2009      H2013   1.046       .  S
N2009      H2014   1.043       .  S
N2012      H2015   1.046       .  S
N2012      H2016   1.046       .  S
