geometry optimzed in LAMMPS
_audit_creation_date              2020-11-30 
_audit_creation_method            'lammps2cif' 
_symmetry_space_group_name_H-M    'P1' 
_symmetry_Int_Tables_number       1 
_symmetry_cell_setting            triclinic 
loop_ 
_symmetry_equiv_pos_as_xyz 
  x,y,z 
_cell_length_a                    44.87761099 
_cell_length_b                    45.23481848718723 
_cell_length_c                    33.05667952022286 
_cell_angle_alpha                 90.24736472483876 
_cell_angle_beta                  89.63057714965143 
_cell_angle_gamma                 120.29080098096053 
loop_ 
_atom_site_label 
_atom_site_type_symbol 
_atom_site_fract_x 
_atom_site_fract_y 
_atom_site_fract_z 
_atom_site_charge 
C1          C  0.33256608  0.17008559  0.71348409     0.46100
H2          H  0.33338271  0.17060746  0.67992404    -0.02900
C3          C  0.33142452  0.16917753  0.79230587     0.46100
H4          H  0.33112119  0.16832271  0.82586878    -0.02900
C5          C  0.35303599  0.20592782  0.73308090    -0.16600
C6          C  0.29586274  0.15430056  0.73145902    -0.16400
C7          C  0.34769581  0.14923695  0.73203096    -0.16800
C8          C  0.35260998  0.20537952  0.77475531    -0.16700
C9          C  0.29559111  0.15431475  0.77310260    -0.16300
C10         C  0.34677086  0.14879554  0.77354770    -0.16600
C11         C  0.16141187  0.33466316  0.28912760     0.46100
H12         H  0.16166040  0.33540518  0.32267938    -0.02900
C13         C  0.16088919  0.33197040  0.21027821     0.46100
H14         H  0.16030687  0.33040080  0.17675716    -0.02900
C15         C  0.19783712  0.35222376  0.27015284    -0.16600
C16         C  0.14296229  0.29800695  0.27194949    -0.16400
C17         C  0.14340362  0.35241139  0.26930849    -0.16800
C18         C  0.19759081  0.35067921  0.22844351    -0.16700
C19         C  0.14232028  0.29660973  0.23075172    -0.16300
C20         C  0.14327380  0.35106728  0.22754006    -0.16600
O21         O  0.43195081  0.49579219  0.05289928    -0.77900
C22         C  0.03652916  0.07890679  0.06720866     0.83200
O23         O  0.47069168  0.02605553  0.91678752    -0.79000
O24         O  0.07963645  0.04412852  0.97516448    -0.80500
O25         O  0.00015024  0.44207500  0.05503266    -0.80300
O26         O  0.42654476  0.44406472  0.04969147    -0.78900
Zn27       Zn  0.47368122  0.02688321  0.01923447     1.55700
O28         O  0.05195236  0.48903500  0.05352775    -0.80300
Cd29       Cd  0.47050552  0.45365545  0.01794624     1.59700
Cd30       Cd  0.49752878  0.00363025  0.93927457     1.59600
O31         O  0.45864515  0.42100281  0.96896618    -0.80300
O32         O  0.49613986  0.00233644  0.99979620    -1.90800
Cd33       Cd  0.04400154  0.02393267  0.02179252     1.59900
O34         O  0.47728300  0.45499022  0.91472112    -0.80200
O35         O  0.05369567  0.06402105  0.06011247    -0.78900
C36         C  0.45658947  0.04091501  0.93466424     0.83600
C37         C  0.41581686  0.46400600  0.06146019     0.83300
O38         O  0.00647269  0.06801139  0.05278389    -0.77800
C39         C  0.03192402  0.45812868  0.06456453     0.84100
O40         O  0.45636845  0.04311490  0.97308545    -0.77900
C41         C  0.46355672  0.42544051  0.93091210     0.84200
C42         C  0.07698589  0.04538523  0.93690374     0.84600
O43         O  0.04783309  0.03203712  0.91939836    -0.80400
O44         O  0.00089815  0.06421302  0.44351405    -0.77900
C45         C  0.41587851  0.45914348  0.43656737     0.83200
O46         O  0.47285852  0.02786868  0.58254972    -0.79000
O47         O  0.45820065  0.41965001  0.52672696    -0.80500
O48         O  0.05568214  0.49887345  0.44178477    -0.80300
O49         O  0.05353312  0.07104630  0.44821697    -0.78900
Zn50       Zn  0.47082570  0.02361858  0.47945190     1.55700
O51         O  0.00794478  0.44765554  0.44164043    -0.80300
Cd52       Cd  0.04491257  0.02838145  0.48014236     1.59700
Cd53       Cd  0.49667778  0.00178149  0.56058628     1.59600
O54         O  0.07981969  0.04442965  0.52737903    -0.80300
O55         O  0.49615108  0.00213419  0.49976692    -1.90800
Cd56       Cd  0.47402987  0.45403729  0.47903002     1.59900
O57         O  0.04721337  0.02642752  0.58296949    -0.80200
O58         O  0.42992288  0.44172349  0.44619997    -0.78900
C59         C  0.45799671  0.04196703  0.56485599     0.83600
C60         C  0.03307482  0.08067867  0.43548173     0.83300
O61         O  0.42888530  0.49040699  0.44699113    -0.77800
C62         C  0.03896961  0.46786135  0.43004102     0.84100
O63         O  0.45526237  0.04136105  0.52646535    -0.77900
C64         C  0.07680487  0.04161325  0.56573816     0.84200
C65         C  0.45716769  0.42223013  0.56506073     0.84600
O66         O  0.47017470  0.45146807  0.58236605    -0.80400
C67         C  0.12639168  0.26368248  0.20835717    -0.11300
C68         C  0.09370082  0.24973498  0.19045755     0.04100
C69         C  0.07927428  0.21809027  0.17070396    -0.11900
C70         C  0.09744646  0.20037015  0.16718083     0.19000
C71         C  0.13049056  0.21477019  0.18468922    -0.08900
C72         C  0.14371491  0.24518260  0.20680148    -0.01900
H73         H  0.05392611  0.20752680  0.15723463     0.05500
C74         C  0.08244645  0.16872702  0.14221075     0.21000
H75         H  0.16865008  0.25543070  0.22120706     0.10700
C76         C  0.07303080  0.17040072  0.10219526    -0.15300
C77         C  0.05779533  0.14132753  0.07754440     0.03700
C78         C  0.05211585  0.10985405  0.09258791    -0.10600
C79         C  0.06168711  0.10800641  0.13234512    -0.00600
C80         C  0.07615498  0.13690699  0.15744850    -0.05800
H81         H  0.07764970  0.19456453  0.08999063     0.06700
H82         H  0.05703994  0.08373448  0.14423948     0.10100
Br83       Br  0.16064182  0.19683482  0.17526393    -0.05500
Br84       Br  0.06736941  0.27231472  0.19303791    -0.02400
Br85       Br  0.04662912  0.14622531  0.02296418     0.00400
Br86       Br  0.08459919  0.13053033  0.21261575    -0.04000
C87         C  0.38417317  0.44990048  0.08643215    -0.11300
C88         C  0.35927597  0.45992951  0.08123717     0.04100
C89         C  0.32955582  0.44544634  0.10551733    -0.11900
C90         C  0.32433889  0.42129964  0.13529840     0.19000
C91         C  0.34938270  0.41171234  0.14087496    -0.08900
C92         C  0.37883647  0.42578995  0.11637469    -0.01900
H93         H  0.31012752  0.45248485  0.10062902     0.06100
C94         C  0.29153095  0.40430930  0.15820577     0.21000
H95         H  0.39784159  0.41815373  0.12106336     0.10700
C96         C  0.26811403  0.36980697  0.15028959    -0.15300
C97         C  0.23735604  0.35201322  0.17215308     0.03700
C98         C  0.22951004  0.36869749  0.20305661    -0.10600
C99         C  0.25278291  0.40369939  0.21017371    -0.00600
C100        C  0.28348156  0.42152923  0.18793751    -0.05800
H101        H  0.27408545  0.35651144  0.12715545     0.06700
H102        H  0.24695803  0.41726702  0.23306740     0.10100
Br103      Br  0.34478371  0.37995036  0.18211945    -0.05500
Br104      Br  0.36308423  0.99130077  0.03977872    -0.02400
Br105      Br  0.20879681  0.30483188  0.15888545     0.00400
Br106      Br  0.31396196  0.46900244  0.19980918    -0.04000
C107        C  0.12598542  0.36495762  0.20144211    -0.11300
C108        C  0.14282614  0.38713254  0.16843642     0.04100
C109        C  0.12620136  0.40121724  0.14695107    -0.11900
C110        C  0.09307806  0.39421258  0.15791615     0.19000
C111        C  0.07591276  0.37170665  0.19019980    -0.08900
C112        C  0.09217016  0.35705056  0.21126004    -0.01900
H113        H  0.13948462  0.41835426  0.12193743     0.05500
C114        C  0.07693728  0.41059079  0.13515851     0.21000
H115        H  0.07852988  0.33989275  0.23609988     0.10700
C116        C  0.04745086  0.39018826  0.11205264    -0.15300
C117        C  0.03173634  0.40474265  0.08964987     0.03700
C118        C  0.04624465  0.44078233  0.08918363    -0.10600
C119        C  0.07583945  0.46105721  0.11253332    -0.00600
C120        C  0.09093038  0.44629605  0.13563178    -0.05800
H121        H  0.03661628  0.36269912  0.11142733     0.06700
H122        H  0.08712529  0.48859339  0.11332979     0.10100
Br123      Br  0.03103208  0.36167641  0.20804724    -0.05500
Br124      Br  0.18921670  0.40176169  0.15232600    -0.02400
Br125      Br  0.49122650  0.37344459  0.06001184     0.00400
Br126      Br  0.12981053  0.47591409  0.16857179    -0.04000
C127        C  0.12627211  0.26662624  0.29713255    -0.11300
C128        C  0.14537990  0.25314292  0.31453712     0.04100
C129        C  0.12832749  0.22199660  0.33532024    -0.11900
C130        C  0.09227368  0.20434044  0.34022671     0.19000
C131        C  0.07332678  0.21856420  0.32393755    -0.08900
C132        C  0.09021096  0.24844328  0.30081646    -0.01900
H133        H  0.14327351  0.21158707  0.34792728     0.05500
C134        C  0.07565155  0.17227283  0.36424334     0.21000
H135        H  0.07521418  0.25821835  0.28675684     0.10700
C136        C  0.08705453  0.17324898  0.40393869    -0.15300
C137        C  0.07332655  0.14358580  0.42740261     0.03700
C138        C  0.04736852  0.11226453  0.41149707    -0.10600
C139        C  0.03564036  0.11109561  0.37199535    -0.00600
C140        C  0.04997803  0.14066009  0.34806063    -0.05800
H141        H  0.10677158  0.19720379  0.41670727     0.06700
H142        H  0.01609560  0.08698508  0.35936794     0.10100
Br143      Br  0.02523827  0.20048175  0.33563389    -0.05500
Br144      Br  0.19450215  0.27532016  0.30928341    -0.02400
Br145      Br  0.09002221  0.14733701  0.48157939     0.00400
Br146      Br  0.03505903  0.13571819  0.29294387    -0.04000
C147        C  0.38397233  0.44288343  0.41211044    -0.11300
C148        C  0.35640917  0.40965513  0.42069313     0.04100
C149        C  0.32710695  0.39476876  0.39611960    -0.11900
C150        C  0.32439668  0.41269318  0.36327103     0.19000
C151        C  0.35140590  0.44614751  0.35517952    -0.08900
C152        C  0.38092045  0.46096055  0.37946891    -0.01900
H153        H  0.30592522  0.36937632  0.40323743     0.05500
C154        C  0.29225878  0.39690756  0.33941213     0.21000
H155        H  0.40170686  0.48661493  0.37261346     0.10700
C156        C  0.26724378  0.40578353  0.34813328    -0.15300
C157        C  0.23649985  0.39169287  0.32624102     0.03700
C158        C  0.23007349  0.36775735  0.29498535    -0.10600
C159        C  0.25535363  0.35881619  0.28660819    -0.00600
C160        C  0.28622405  0.37324195  0.30837753    -0.05800
H161        H  0.27194395  0.42424676  0.37187735     0.06700
H162        H  0.25108678  0.34046257  0.26291842     0.10100
Br163      Br  0.34891180  0.47234542  0.31124128    -0.05500
Br164      Br  0.35575863  0.38480463  0.46775550    -0.02400
Br165      Br  0.20626412  0.40868826  0.33912292     0.00400
Br166      Br  0.31976207  0.36052351  0.29435816    -0.04000
C167        C  0.05586361  0.45477845  0.40216290    -0.11300
C168        C  0.09220590  0.46963160  0.39949199     0.04100
C169        C  0.10646293  0.45451171  0.37523533    -0.11900
C170        C  0.08552045  0.42547714  0.35201812     0.19000
C171        C  0.04951949  0.41177385  0.35262703    -0.08900
C172        C  0.03502233  0.42613761  0.37785061    -0.01900
H173        H  0.13421167  0.46508966  0.37519009     0.05500
C174        C  0.10133244  0.40782799  0.33090408     0.21000
H175        H  0.00718296  0.41479429  0.37832860     0.10700
C176        C  0.09211074  0.37480943  0.34348058    -0.15300
C177        C  0.10614366  0.35676045  0.32502809     0.03700
C178        C  0.13001093  0.37164794  0.29287220    -0.10600
C179        C  0.14054167  0.40558056  0.28167260    -0.00600
C180        C  0.12642420  0.42363259  0.30031489    -0.05800
H181        H  0.07365562  0.36290855  0.36789815     0.06700
H182        H  0.15956166  0.41795466  0.25793450     0.10100
Br183      Br  0.01912734  0.37376341  0.31913998    -0.05500
Br184      Br  0.12454774  0.50965055  0.42863352    -0.02400
Br185      Br  0.09003781  0.31176627  0.34516751     0.00400
Br186      Br  0.14137796  0.46922097  0.28204330    -0.04000
C187        C  0.43949206  0.05555624  0.91053200    -0.11300
C188        C  0.45319703  0.07234986  0.87331749     0.04100
C189        C  0.43618482  0.08601618  0.85181832    -0.11900
C190        C  0.40583516  0.08373546  0.86693595     0.19000
C191        C  0.39205433  0.06695769  0.90394145    -0.08900
C192        C  0.40892155  0.05313007  0.92543064    -0.01900
H193        H  0.44712882  0.09925642  0.82352794     0.05500
C194        C  0.38990750  0.10038783  0.84446513     0.21000
H195        H  0.39805930  0.04039515  0.95399150     0.10700
C196        C  0.35875496  0.08022707  0.82387702    -0.15300
C197        C  0.34394695  0.09552638  0.80112866     0.03700
C198        C  0.36035696  0.13146088  0.79897496    -0.10600
C199        C  0.39089008  0.15156556  0.82051757    -0.00600
C200        C  0.40596071  0.13632700  0.84272606    -0.05800
H201        H  0.34616003  0.05257362  0.82521544     0.06700
H202        H  0.40354382  0.17922569  0.81905999     0.10100
Br203      Br  0.35110609  0.06355351  0.92704118    -0.05500
Br204      Br  0.99647941  0.08016572  0.85196374    -0.02400
Br205      Br  0.30107988  0.06652175  0.77422974     0.00400
Br206      Br  0.44848562  0.16559500  0.87017345    -0.04000
C207        C  0.37215859  0.23661209  0.80037713    -0.11300
C208        C  0.35688715  0.24444565  0.83318758     0.04100
C209        C  0.37538895  0.27592579  0.85297961    -0.11900
C210        C  0.40904489  0.29991984  0.84110349     0.19000
C211        C  0.42517818  0.29148919  0.81032436    -0.08900
C212        C  0.40684123  0.25996815  0.79049104    -0.01900
H213        H  0.36310910  0.28217921  0.87724536     0.05500
C214        C  0.42610714  0.33390742  0.86058313     0.21000
H215        H  0.41954246  0.25400155  0.76648947     0.10700
C216        C  0.45052969  0.34124077  0.89089538    -0.15300
C217        C  0.46419629  0.37181093  0.91282458     0.03700
C218        C  0.45289688  0.39519695  0.90501903    -0.10600
C219        C  0.42994793  0.38870925  0.87313041    -0.00600
C220        C  0.41648271  0.35824068  0.85098564    -0.05800
H221        H  0.45858652  0.32293036  0.89786049     0.06700
H222        H  0.42159287  0.40681429  0.86633983     0.10100
Br223      Br  0.47155668  0.32280340  0.79331853    -0.05500
Br224      Br  0.31058970  0.21510334  0.85176927    -0.02400
Br225      Br  0.49953832  0.38136852  0.95154954     0.00400
Br226      Br  0.38459755  0.35049892  0.80831151    -0.04000
C227        C  0.26403811  0.14076980  0.79829381    -0.11300
C228        C  0.24132288  0.15369968  0.79554303     0.04100
C229        C  0.21119177  0.13915764  0.81888537    -0.11900
C230        C  0.20374825  0.11238060  0.84563595     0.19000
C231        C  0.22699229  0.10036215  0.84959895    -0.08900
C232        C  0.25697847  0.11464498  0.82603281    -0.01900
H233        H  0.19364962  0.14887676  0.81642744     0.05500
C234        C  0.17114198  0.09658889  0.86845909     0.21000
H235        H  0.27456997  0.10505344  0.82896179     0.10700
C236        C  0.14218676  0.06831968  0.85175031    -0.15300
C237        C  0.11108188  0.05148894  0.87317445     0.03700
C238        C  0.10881082  0.06302339  0.91229379    -0.10600
C239        C  0.13791685  0.09175813  0.92862729    -0.00600
C240        C  0.16886807  0.10869442  0.90687491    -0.05800
H241        H  0.14402367  0.05895845  0.82210069     0.06700
H242        H  0.13656063  0.10118982  0.95840537     0.10100
Br243      Br  0.21860768  0.06442732  0.88666953    -0.05500
Br244      Br  0.25142596  0.19284735  0.76322328    -0.02400
Br245      Br  0.07374871  0.01167936  0.84820722     0.00400
Br246      Br  0.20747906  0.14802573  0.93063413    -0.04000
C247        C  0.44327854  0.05905012  0.58981677    -0.11300
C248        C  0.43731666  0.08476730  0.57422710     0.04100
C249        C  0.42277375  0.09936746  0.59904073    -0.11900
C250        C  0.41411962  0.08921683  0.63939980     0.19000
C251        C  0.42011879  0.06386163  0.65517451    -0.08900
C252        C  0.43475490  0.04922354  0.63055691    -0.01900
H253        H  0.41821914  0.11892992  0.58677449     0.05500
C254        C  0.39746715  0.10445102  0.66373550     0.21000
H255        H  0.43880269  0.02947945  0.64324097     0.10700
C256        C  0.36367963  0.09601019  0.65432650    -0.15300
C257        C  0.34706239  0.11031564  0.67585183     0.03700
C258        C  0.36436022  0.13366604  0.70757629    -0.10600
C259        C  0.39851126  0.14249217  0.71639727    -0.00600
C260        C  0.41506029  0.12813193  0.69487694    -0.05800
H261        H  0.35007011  0.07796088  0.63018540     0.06700
H262        H  0.41271236  0.16125353  0.73962981     0.10100
Br263      Br  0.40728747  0.04730713  0.70954472    -0.05500
Br264      Br  0.44945599  0.10254511  0.52015630    -0.02400
Br265      Br  0.30037975  0.09547677  0.66133160     0.00400
Br266      Br  0.46206364  0.14266757  0.70802236    -0.04000
C267        C  0.44062820  0.39049005  0.59028881    -0.11300
C268        C  0.41679949  0.35777160  0.57428301     0.04100
C269        C  0.40248893  0.32885082  0.59922721    -0.11900
C270        C  0.41119026  0.33139283  0.64013464     0.19000
C271        C  0.43470384  0.36365311  0.65637470    -0.08900
C272        C  0.44897849  0.39279871  0.63165577    -0.01900
H273        H  0.38440127  0.30404180  0.58657008     0.05500
C274        C  0.39643802  0.29974050  0.66467764     0.21000
H275        H  0.46725437  0.41729513  0.64479481     0.10700
C276        C  0.40848816  0.27688372  0.65839632    -0.15300
C277        C  0.39468016  0.24624103  0.68014851     0.03700
C278        C  0.36842260  0.23809845  0.70900516    -0.10600
C279        C  0.35643323  0.26110084  0.71533488    -0.00600
C280        C  0.36983900  0.29144872  0.69302921    -0.05800
H281        H  0.42886005  0.28301250  0.63648972     0.06700
H282        H  0.33593450  0.25496936  0.73706583     0.10100
Br283      Br  0.44908462  0.36882620  0.71171888    -0.05500
Br284      Br  0.40148496  0.34985930  0.51917031    -0.02400
Br285      Br  0.41407386  0.21762159  0.67069708     0.00400
Br286      Br  0.34981829  0.31983296  0.70055737    -0.04000
C287        C  0.26380785  0.13752598  0.70635921    -0.11300
C288        C  0.25828071  0.15437929  0.67384401     0.04100
C289        C  0.22721378  0.13791803  0.65239957    -0.11900
C290        C  0.20128118  0.10468261  0.66249505     0.19000
C291        C  0.20696924  0.08738004  0.69401145    -0.08900
C292        C  0.23794777  0.10375606  0.71557820    -0.01900
H293        H  0.22309420  0.15124213  0.62787021     0.05500
C294        C  0.16902844  0.08811027  0.63871411     0.21000
H295        H  0.24198887  0.08987768  0.73947520     0.10700
C296        C  0.16879572  0.07323615  0.60148912    -0.15300
C297        C  0.13904499  0.05760158  0.57773074     0.03700
C298        C  0.10858930  0.05684802  0.59087681    -0.10600
C299        C  0.10889175  0.07158925  0.62857863    -0.00600
C300        C  0.13883111  0.08726804  0.65232397    -0.05800
H301        H  0.19186074  0.07352558  0.59104397     0.06700
H302        H  0.08601377  0.07150864  0.63928385     0.10100
Br303      Br  0.17336995  0.04117466  0.70802217    -0.05500
Br304      Br  0.29071280  0.20047099  0.65845559    -0.02400
Br305      Br  0.14152200  0.53586479  0.52914210     0.00400
Br306      Br  0.13778937  0.10792645  0.70270140    -0.04000
C307        C  0.33256665  0.67008527  0.71348388     0.46100
H308        H  0.33338330  0.67060692  0.67992384    -0.02900
C309        C  0.33142505  0.66917768  0.79230566     0.46100
H310        H  0.33112172  0.66832305  0.82586858    -0.02900
C311        C  0.35303668  0.70592761  0.73308040    -0.16600
C312        C  0.29586331  0.65430053  0.73145874    -0.16400
C313        C  0.34769623  0.64923662  0.73203113    -0.16800
C314        C  0.35261069  0.70537955  0.77475481    -0.16700
C315        C  0.29559167  0.65431494  0.77310234    -0.16300
C316        C  0.34677122  0.64879543  0.77354786    -0.16600
C317        C  0.16141155  0.83466332  0.28912825     0.46100
H318        H  0.16166000  0.83540541  0.32268002    -0.02900
C319        C  0.16088915  0.83197038  0.21027888     0.46100
H320        H  0.16030706  0.83040066  0.17675784    -0.02900
C321        C  0.19783685  0.85222377  0.27015374    -0.16600
C322        C  0.14296191  0.79800707  0.27195025    -0.16400
C323        C  0.14340349  0.85241164  0.26930888    -0.16800
C324        C  0.19759071  0.85067911  0.22844445    -0.16700
C325        C  0.14231999  0.79660972  0.23075247    -0.16300
C326        C  0.14327377  0.85106742  0.22754044    -0.16600
O327        O  0.43195016  0.99579137  0.05289895    -0.77900
C328        C  0.03652963  0.57890717  0.06720814     0.83200
O329        O  0.47069224  0.52605591  0.91678810    -0.79000
O330        O  0.07963699  0.54412817  0.97516435    -0.80500
O331        O  0.00014991  0.94207477  0.05503252    -0.80300
O332        O  0.42654424  0.94406396  0.04969106    -0.78900
Zn333      Zn  0.47368207  0.52688390  0.01923505     1.55700
O334        O  0.05195203  0.98903477  0.05352730    -0.80300
Cd335      Cd  0.47050493  0.95365494  0.01794528     1.59700
Cd336      Cd  0.49752900  0.50363027  0.93927522     1.59600
O337        O  0.45864486  0.92100262  0.96896492    -0.80300
O338        O  0.49614046  0.50233686  0.99979688    -1.90800
Cd339      Cd  0.04400205  0.52393281  0.02179245     1.59900
O340        O  0.47728345  0.95499040  0.91472018    -0.80200
O341        O  0.05369621  0.56402147  0.06011201    -0.78900
C342        C  0.45659020  0.54091555  0.93466484     0.83600
C343        C  0.41581637  0.96400521  0.06146002     0.83300
O344        O  0.00647313  0.56801168  0.05278337    -0.77800
C345        C  0.03192377  0.95812844  0.06456412     0.84100
O346        O  0.45636936  0.54311561  0.97308603    -0.77900
C347        C  0.46355699  0.92544060  0.93091093     0.84200
C348        C  0.07698646  0.54538502  0.93690361     0.84600
O349        O  0.04783366  0.53203720  0.91939829    -0.80400
O350        O  0.00089821  0.56421293  0.44351445    -0.77900
C351        C  0.41587823  0.95914375  0.43656823     0.83200
O352        O  0.47285923  0.52786877  0.58254944    -0.79000
O353        O  0.45820105  0.91965014  0.52672665    -0.80500
O354        O  0.05568198  0.99887376  0.44178495    -0.80300
O355        O  0.05353317  0.57104609  0.44821681    -0.78900
Zn356      Zn  0.47082561  0.52361827  0.47945164     1.55700
O357        O  0.00794468  0.94765579  0.44164054    -0.80300
Cd358      Cd  0.04491277  0.52838126  0.48014213     1.59700
Cd359      Cd  0.49667831  0.50178153  0.56058576     1.59600
O360        O  0.07981998  0.54442973  0.52737873    -0.80300
O361        O  0.49615120  0.50213396  0.49976640    -1.90800
Cd362      Cd  0.47402997  0.95403768  0.47903004     1.59900
O363        O  0.04721385  0.52642791  0.58296933    -0.80200
O364        O  0.42992264  0.94172375  0.44620060    -0.78900
C365        C  0.45799698  0.54196678  0.56485592     0.83600
C366        C  0.03307486  0.58067858  0.43548198     0.83300
O367        O  0.42888518  0.99040731  0.44699182    -0.77800
C368        C  0.03896951  0.96786168  0.43004115     0.84100
O369        O  0.45526216  0.54136051  0.52646533    -0.77900
C370        C  0.07680530  0.54161361  0.56573788     0.84200
C371        C  0.45716759  0.92223001  0.56506041     0.84600
O372        O  0.47017409  0.95146782  0.58236598    -0.80400
C373        C  0.12639126  0.76368239  0.20835795    -0.11300
C374        C  0.09370096  0.74973555  0.19045698     0.04100
C375        C  0.07927449  0.71809097  0.17070307    -0.11900
C376        C  0.09744614  0.70037026  0.16718098     0.19000
C377        C  0.13048967  0.71476961  0.18469078    -0.08900
C378        C  0.14371386  0.74518188  0.20680330    -0.01900
H379        H  0.05392666  0.70752800  0.15723267     0.05500
C380        C  0.08244629  0.66872720  0.14221071     0.21000
H381        H  0.16864867  0.75542945  0.22120998     0.10700
C382        C  0.07303177  0.67040121  0.10219477    -0.15300
C383        C  0.05779655  0.64132812  0.07754370     0.03700
C384        C  0.05211622  0.60985441  0.09258747    -0.10600
C385        C  0.06168632  0.60800644  0.13234513    -0.00600
C386        C  0.07615388  0.63690692  0.15744869    -0.05800
H387        H  0.07765135  0.69456523  0.08998992     0.06700
H388        H  0.05703844  0.58373431  0.14423972     0.10100
Br389      Br  0.16064050  0.69683351  0.17526711    -0.05500
Br390      Br  0.06737017  0.77231596  0.19303604    -0.02400
Br391      Br  0.04663171  0.64622624  0.02296297     0.00400
Br392      Br  0.08459625  0.63052974  0.21261649    -0.04000
C393        C  0.38417294  0.94989974  0.08643250    -0.11300
C394        C  0.35927544  0.95992841  0.08123757     0.04100
C395        C  0.32955555  0.94544530  0.10551813    -0.11900
C396        C  0.32433917  0.92129921  0.13529975     0.19000
C397        C  0.34938344  0.91171251  0.14087649    -0.08900
C398        C  0.37883685  0.92578989  0.11637564    -0.01900
H399        H  0.31012681  0.95248350  0.10062968     0.06100
C400        C  0.29153133  0.90430877  0.15820741     0.21000
H401        H  0.39784245  0.91815402  0.12106445     0.10700
C402        C  0.26811502  0.86980604  0.15029247    -0.15300
C403        C  0.23735693  0.85201243  0.17215582     0.03700
C404        C  0.22951012  0.86869723  0.20305784    -0.10600
C405        C  0.25278250  0.90369939  0.21017399    -0.00600
C406        C  0.28348126  0.92152912  0.18793794    -0.05800
H407        H  0.27408696  0.85651013  0.12715938     0.06700
H408        H  0.24695711  0.91726727  0.23306681     0.10100
Br409      Br  0.34478561  0.87995189  0.18212221    -0.05500
Br410      Br  0.36308534  0.49130234  0.03977862    -0.02400
Br411      Br  0.20879871  0.80483048  0.15889051     0.00400
Br412      Br  0.31396090  0.96900275  0.19980823    -0.04000
C413        C  0.12598543  0.86495771  0.20144226    -0.11300
C414        C  0.14282602  0.88713217  0.16843617     0.04100
C415        C  0.12620129  0.90121685  0.14695061    -0.11900
C416        C  0.09307817  0.89421263  0.15791591     0.19000
C417        C  0.07591301  0.87170721  0.19020000    -0.08900
C418        C  0.09217030  0.85705107  0.21126039    -0.01900
H419        H  0.13948442  0.91835344  0.12193673     0.05500
C420        C  0.07693740  0.91059078  0.13515803     0.21000
H421        H  0.07853011  0.83989362  0.23610041     0.10700
C422        C  0.04745073  0.89018816  0.11205258    -0.15300
C423        C  0.03173614  0.90474245  0.08964975     0.03700
C424        C  0.04624459  0.94078216  0.08918307    -0.10600
C425        C  0.07583966  0.96105712  0.11253230    -0.00600
C426        C  0.09093070  0.94629608  0.13563079    -0.05800
H427        H  0.03661594  0.86269887  0.11142766     0.06700
H428        H  0.08712569  0.98859343  0.11332844     0.10100
Br429      Br  0.03103270  0.86167780  0.20804790    -0.05500
Br430      Br  0.18921637  0.90176070  0.15232537    -0.02400
Br431      Br  0.49122597  0.87344404  0.06001051     0.00400
Br432      Br  0.12981120  0.97591430  0.16857022    -0.04000
C433        C  0.12627165  0.76662650  0.29713349    -0.11300
C434        C  0.14537940  0.75314315  0.31453813     0.04100
C435        C  0.12832695  0.72199695  0.33532143    -0.11900
C436        C  0.09227319  0.70434100  0.34022820     0.19000
C437        C  0.07332636  0.71856493  0.32393924    -0.08900
C438        C  0.09021053  0.74844379  0.30081777    -0.01900
H439        H  0.14327295  0.71158731  0.34792837     0.05500
C440        C  0.07565104  0.67227329  0.36424467     0.21000
H441        H  0.07521379  0.75821896  0.28675817     0.10700
C442        C  0.08705462  0.67324908  0.40393964    -0.15300
C443        C  0.07332693  0.64358569  0.42740316     0.03700
C444        C  0.04736849  0.61226462  0.41149768    -0.10600
C445        C  0.03563972  0.61109609  0.37199637    -0.00600
C446        C  0.04997719  0.64066072  0.34806196    -0.05800
H447        H  0.10677200  0.69720374  0.41670819     0.06700
H448        H  0.01609465  0.58698568  0.35936896     0.10100
Br449      Br  0.02523807  0.70048306  0.33563641    -0.05500
Br450      Br  0.19450162  0.77532020  0.30928435    -0.02400
Br451      Br  0.09002367  0.64733639  0.48157931     0.00400
Br452      Br  0.03505758  0.63571920  0.29294549    -0.04000
C453        C  0.38397183  0.94288368  0.41211172    -0.11300
C454        C  0.35640859  0.90965557  0.42069491     0.04100
C455        C  0.32710628  0.89476899  0.39612149    -0.11900
C456        C  0.32439598  0.91269320  0.36327268     0.19000
C457        C  0.35140514  0.94614750  0.35518094    -0.08900
C458        C  0.38091984  0.96096066  0.37947008    -0.01900
H459        H  0.30592463  0.86937676  0.40323958     0.05500
C460        C  0.29225810  0.89690740  0.33941376     0.21000
H461        H  0.40170616  0.98661486  0.37261441     0.10700
C462        C  0.26724316  0.90578350  0.34813451    -0.15300
C463        C  0.23649937  0.89169293  0.32624203     0.03700
C464        C  0.23007311  0.86775736  0.29498643    -0.10600
C465        C  0.25535319  0.85881605  0.28660970    -0.00600
C466        C  0.28622344  0.87324166  0.30837934    -0.05800
H467        H  0.27194330  0.92424690  0.37187855     0.06700
H468        H  0.25108637  0.84046226  0.26291996     0.10100
Br469      Br  0.34891072  0.97234533  0.31124280    -0.05500
Br470      Br  0.35575798  0.88480572  0.46775796    -0.02400
Br471      Br  0.20626368  0.90868844  0.33912356     0.00400
Br472      Br  0.31976127  0.86052279  0.29436069    -0.04000
C473        C  0.05586359  0.95477894  0.40216295    -0.11300
C474        C  0.09220593  0.96963235  0.39949179     0.04100
C475        C  0.10646301  0.95451259  0.37523503    -0.11900
C476        C  0.08552061  0.92547789  0.35201800     0.19000
C477        C  0.04951959  0.91177438  0.35262711    -0.08900
C478        C  0.03502241  0.92613804  0.37785075    -0.01900
H479        H  0.13421198  0.96509079  0.37518962     0.05500
C480        C  0.10133262  0.90782869  0.33090414     0.21000
H481        H  0.00718283  0.91479446  0.37832890     0.10700
C482        C  0.09211111  0.87481029  0.34348105    -0.15300
C483        C  0.10614393  0.85676117  0.32502869     0.03700
C484        C  0.13001091  0.87164837  0.29287246    -0.10600
C485        C  0.14054157  0.90558090  0.28167253    -0.00600
C486        C  0.12642417  0.92363306  0.30031468    -0.05800
H487        H  0.07365617  0.86290960  0.36789889     0.06700
H488        H  0.15956143  0.91795484  0.25793422     0.10100
Br489      Br  0.01912747  0.87376370  0.31914036    -0.05500
Br490      Br  0.12454771  0.00965146  0.42863319    -0.02400
Br491      Br  0.09003835  0.81176726  0.34516887     0.00400
Br492      Br  0.14137770  0.96922125  0.28204255    -0.04000
C493        C  0.43949269  0.55555669  0.91053266    -0.11300
C494        C  0.45319791  0.57235082  0.87331850     0.04100
C495        C  0.43618556  0.58601697  0.85181931    -0.11900
C496        C  0.40583550  0.58373561  0.86693662     0.19000
C497        C  0.39205441  0.56695727  0.90394178    -0.08900
C498        C  0.40892179  0.55312981  0.92543096    -0.01900
H499        H  0.44712975  0.59925761  0.82352916     0.05500
C500        C  0.38990774  0.60038792  0.84446586     0.21000
H501        H  0.39805934  0.54039445  0.95399156     0.10700
C502        C  0.35875502  0.58022712  0.82387809    -0.15300
C503        C  0.34394701  0.59552636  0.80112960     0.03700
C504        C  0.36035722  0.63146085  0.79897541    -0.10600
C505        C  0.39089046  0.65156560  0.82051776    -0.00600
C506        C  0.40596110  0.63632710  0.84272636    -0.05800
H507        H  0.34615998  0.55257366  0.82521680     0.06700
H508        H  0.40354433  0.67922571  0.81905983     0.10100
Br509      Br  0.35110558  0.56355206  0.92704111    -0.05500
Br510      Br  0.99647803  0.58016306  0.85196118    -0.02400
Br511      Br  0.30107976  0.56652168  0.77423107     0.00400
Br512      Br  0.44848623  0.66559524  0.87017328    -0.04000
C513        C  0.37215950  0.73661223  0.80037639    -0.11300
C514        C  0.35688825  0.74444600  0.83318686     0.04100
C515        C  0.37539029  0.77592614  0.85297879    -0.11900
C516        C  0.40904622  0.79992005  0.84110252     0.19000
C517        C  0.42517931  0.79148922  0.81032331    -0.08900
C518        C  0.40684213  0.75996813  0.79049016    -0.01900
H519        H  0.36311050  0.78217977  0.87724465     0.05500
C520        C  0.42610851  0.83390778  0.86058181     0.21000
H521        H  0.41954329  0.75400134  0.76648837     0.10700
C522        C  0.45053135  0.84124149  0.89089384    -0.15300
C523        C  0.46419765  0.87181166  0.91282302     0.03700
C524        C  0.45289766  0.89519724  0.90501769    -0.10600
C525        C  0.42994854  0.88870926  0.87312917    -0.00600
C526        C  0.41648364  0.85824071  0.85098440    -0.05800
H527        H  0.45858851  0.82293142  0.89785884     0.06700
H528        H  0.42159312  0.90681393  0.86633876     0.10100
Br529      Br  0.47155774  0.82280328  0.79331712    -0.05500
Br530      Br  0.31059068  0.71510409  0.85176844    -0.02400
Br531      Br  0.49954001  0.88136987  0.95154777     0.00400
Br532      Br  0.38459822  0.85049853  0.80831043    -0.04000
C533        C  0.26403868  0.64076999  0.79829354    -0.11300
C534        C  0.24132331  0.65369969  0.79554263     0.04100
C535        C  0.21119214  0.63915749  0.81888488    -0.11900
C536        C  0.20374869  0.61238046  0.84563545     0.19000
C537        C  0.22699281  0.60036213  0.84959848    -0.08900
C538        C  0.25697907  0.61464515  0.82603250    -0.01900
H539        H  0.19364986  0.64887653  0.81642690     0.05500
C540        C  0.17114248  0.59658874  0.86845872     0.21000
H541        H  0.27457068  0.60505369  0.82896153     0.10700
C542        C  0.14218677  0.56832058  0.85174916    -0.15300
C543        C  0.11108194  0.55148975  0.87317338     0.03700
C544        C  0.10881141  0.56302312  0.91229363    -0.10600
C545        C  0.13791799  0.59175682  0.92862789    -0.00600
C546        C  0.16886916  0.60869314  0.90687548    -0.05800
H547        H  0.14402325  0.55896016  0.82209873     0.06700
H548        H  0.13656223  0.60118777  0.95840679     0.10100
Br549      Br  0.21860811  0.56442702  0.88666866    -0.05500
Br550      Br  0.25142624  0.69284723  0.76322272    -0.02400
Br551      Br  0.07374808  0.51168159  0.84820479     0.00400
Br552      Br  0.20748086  0.64802307  0.93063583    -0.04000
C553        C  0.44327891  0.55904979  0.58981700    -0.11300
C554        C  0.43731717  0.58476715  0.57422765     0.04100
C555        C  0.42277435  0.59936721  0.59904153    -0.11900
C556        C  0.41412017  0.58921638  0.63940050     0.19000
C557        C  0.42011929  0.56386105  0.65517494    -0.08900
C558        C  0.43475531  0.54922306  0.63055707    -0.01900
H559        H  0.41821977  0.61892998  0.58677539     0.05500
C560        C  0.39746758  0.60445037  0.66373635     0.21000
H561        H  0.43880308  0.52947868  0.64324100     0.10700
C562        C  0.36368006  0.59600950  0.65432729    -0.15300
C563        C  0.34706278  0.61031496  0.67585249     0.03700
C564        C  0.36436062  0.63366553  0.70757678    -0.10600
C565        C  0.39851163  0.64249164  0.71639790    -0.00600
C566        C  0.41506065  0.62813126  0.69487784    -0.05800
H567        H  0.35007054  0.57796010  0.63018616     0.06700
H568        H  0.41271275  0.66125314  0.73963043     0.10100
Br569      Br  0.40728801  0.54730631  0.70954506    -0.05500
Br570      Br  0.44945666  0.60254528  0.52015700    -0.02400
Br571      Br  0.30038006  0.59547590  0.66133241     0.00400
Br572      Br  0.46206384  0.64266663  0.70802376    -0.04000
C573        C  0.44062815  0.89048977  0.59028817    -0.11300
C574        C  0.41679938  0.85777143  0.57428214     0.04100
C575        C  0.40248887  0.82885049  0.59922607    -0.11900
C576        C  0.41119031  0.83139223  0.64013344     0.19000
C577        C  0.43470397  0.86365240  0.65637369    -0.08900
C578        C  0.44897854  0.89279816  0.63165504    -0.01900
H579        H  0.38440109  0.80404150  0.58656875     0.05500
C580        C  0.39643802  0.79973981  0.66467629     0.21000
H581        H  0.46725451  0.91729451  0.64479424     0.10700
C582        C  0.40848806  0.77688294  0.65839474    -0.15300
C583        C  0.39468027  0.74624040  0.68014728     0.03700
C584        C  0.36842313  0.73809809  0.70900439    -0.10600
C585        C  0.35643380  0.76110052  0.71533425    -0.00600
C586        C  0.36983936  0.79144825  0.69302826    -0.05800
H587        H  0.42885951  0.78301150  0.63648803     0.06700
H588        H  0.33593552  0.75496928  0.73706528     0.10100
Br589      Br  0.44908497  0.86882513  0.71171775    -0.05500
Br590      Br  0.40148475  0.84985960  0.51916948    -0.02400
Br591      Br  0.41407381  0.71762082  0.67069566     0.00400
Br592      Br  0.34981880  0.81983260  0.70055675    -0.04000
C593        C  0.26380844  0.63752610  0.70635887    -0.11300
C594        C  0.25828165  0.65437934  0.67384329     0.04100
C595        C  0.22721470  0.63791828  0.65239887    -0.11900
C596        C  0.20128166  0.60468318  0.66249483     0.19000
C597        C  0.20696933  0.58738068  0.69401164    -0.08900
C598        C  0.23794794  0.60375644  0.71557824    -0.01900
H599        H  0.22309544  0.65124231  0.62786917     0.05500
C600        C  0.16902898  0.58811101  0.63871379     0.21000
H601        H  0.24198875  0.58987804  0.73947549     0.10700
C602        C  0.16879649  0.57323753  0.60148844    -0.15300
C603        C  0.13904582  0.55760295  0.57772999     0.03700
C604        C  0.10858984  0.55684865  0.59087642    -0.10600
C605        C  0.10889210  0.57158938  0.62857853    -0.00600
C606        C  0.13883144  0.58726825  0.65232389    -0.05800
H607        H  0.19186179  0.57352745  0.59104299     0.06700
H608        H  0.08601385  0.57150832  0.63928405     0.10100
Br609      Br  0.17336941  0.54117570  0.70802312    -0.05500
Br610      Br  0.29071422  0.70047072  0.65845425    -0.02400
Br611      Br  0.14152053  0.03586230  0.52914349     0.00400
Br612      Br  0.13778947  0.60792621  0.70270159    -0.04000
C613        C  0.83256626  0.17008552  0.71348412     0.46100
H614        H  0.83338281  0.17060721  0.67992408    -0.02900
C615        C  0.83142491  0.16917785  0.79230591     0.46100
H616        H  0.83112168  0.16832317  0.82586882    -0.02900
C617        C  0.85303645  0.20592783  0.73308070    -0.16600
C618        C  0.79586298  0.15430083  0.73145918    -0.16400
C619        C  0.84769581  0.14923677  0.73203115    -0.16800
C620        C  0.85261057  0.20537973  0.77475511    -0.16700
C621        C  0.79559148  0.15431524  0.77310277    -0.16300
C622        C  0.84677094  0.14879555  0.77354788    -0.16600
C623        C  0.66141182  0.33466287  0.28912762     0.46100
H624        H  0.66166021  0.33540479  0.32267940    -0.02900
C625        C  0.66088950  0.33197034  0.21027822     0.46100
H626        H  0.66030740  0.33040081  0.17675717    -0.02900
C627        C  0.69783715  0.35222353  0.27015312    -0.16600
C628        C  0.64296233  0.29800671  0.27194935    -0.16400
C629        C  0.64340366  0.35241117  0.26930845    -0.16800
C630        C  0.69759104  0.35067907  0.22844381    -0.16700
C631        C  0.64232044  0.29660959  0.23075157    -0.16300
C632        C  0.64327403  0.35106719  0.22754000    -0.16600
O633        O  0.93195075  0.49579184  0.05289903    -0.77900
C634        C  0.53652893  0.07890656  0.06720825     0.83200
O635        O  0.97069187  0.02605588  0.91678802    -0.79000
O636        O  0.57963647  0.04412852  0.97516406    -0.80500
O637        O  0.50015027  0.44207516  0.05503315    -0.80300
O638        O  0.92654478  0.44406440  0.04969118    -0.78900
Zn639      Zn  0.97368140  0.02688354  0.01923493     1.55700
O640        O  0.55195246  0.48903505  0.05352780    -0.80300
Cd641      Cd  0.97050552  0.45365525  0.01794575     1.59700
Cd642      Cd  0.99752868  0.00363029  0.93927508     1.59600
O643        O  0.95864548  0.42100271  0.96896562    -0.80300
O644        O  0.99613990  0.00233662  0.99979674    -1.90800
Cd645      Cd  0.54400148  0.02393255  0.02179204     1.59900
O646        O  0.97728385  0.45499035  0.91472077    -0.80200
O647        O  0.55369551  0.06402086  0.06011208    -0.78900
C648        C  0.95658968  0.04091538  0.93466475     0.83600
C649        C  0.91581692  0.46400567  0.06146006     0.83300
O650        O  0.50647246  0.06801110  0.05278346    -0.77800
C651        C  0.53192411  0.45812880  0.06456480     0.84100
O652        O  0.95636866  0.04311527  0.97308596    -0.77900
C653        C  0.96355748  0.42544058  0.93091161     0.84200
C654        C  0.57698597  0.04538548  0.93690334     0.84600
O655        O  0.54783318  0.03203746  0.91939796    -0.80400
O656        O  0.50089840  0.06421301  0.44351415    -0.77900
C657        C  0.91587835  0.45914339  0.43656789     0.83200
O658        O  0.97285882  0.02786895  0.58254959    -0.79000
O659        O  0.95820107  0.41965012  0.52672692    -0.80500
O660        O  0.55568207  0.49887323  0.44178453    -0.80300
O661        O  0.55353339  0.07104643  0.44821753    -0.78900
Zn662      Zn  0.97082550  0.02361855  0.47945180     1.55700
O663        O  0.50794476  0.44765525  0.44164069    -0.80300
Cd664      Cd  0.54491278  0.02838158  0.48014283     1.59700
Cd665      Cd  0.99667782  0.00178157  0.56058605     1.59600
O666        O  0.57981971  0.04442981  0.52737962    -0.80300
O667        O  0.99615091  0.00213412  0.49976669    -1.90800
Cd668      Cd  0.97402995  0.45403739  0.47903010     1.59900
O669        O  0.54721329  0.02642759  0.58296997    -0.80200
O670        O  0.92992268  0.44172338  0.44620052    -0.78900
C671        C  0.95799682  0.04196716  0.56485596     0.83600
C672        C  0.53307512  0.08067874  0.43548208     0.83300
O673        O  0.92888526  0.49040697  0.44699140    -0.77800
C674        C  0.53896955  0.46786103  0.43004110     0.84100
O675        O  0.95526220  0.04136101  0.52646535    -0.77900
C676        C  0.57680483  0.04161342  0.56573873     0.84200
C677        C  0.95716798  0.42223015  0.56506068     0.84600
O678        O  0.97017476  0.45146803  0.58236611    -0.80400
C679        C  0.62639175  0.26368238  0.20835685    -0.11300
C680        C  0.59370123  0.24973537  0.19045645     0.04100
C681        C  0.57927459  0.21809071  0.17070270    -0.11900
C682        C  0.59744638  0.20037016  0.16718012     0.19000
C683        C  0.63049021  0.21476978  0.18468915    -0.08900
C684        C  0.64371456  0.24518208  0.20680165    -0.01900
H685        H  0.55392667  0.20752761  0.15723289     0.05500
C686        C  0.58244625  0.16872695  0.14221013     0.21000
H687        H  0.66864943  0.25542975  0.22120780     0.10700
C688        C  0.57303081  0.17040060  0.10219453    -0.15300
C689        C  0.55779528  0.14132736  0.07754376     0.03700
C690        C  0.55211558  0.10985385  0.09258746    -0.10600
C691        C  0.56168657  0.10800623  0.13234480    -0.00600
C692        C  0.57615443  0.13690686  0.15744810    -0.05800
H693        H  0.57764992  0.19456448  0.08998970     0.06700
H694        H  0.55703918  0.08373423  0.14423935     0.10100
Br695      Br  0.66064122  0.19683404  0.17526439    -0.05500
Br696      Br  0.56737031  0.27231563  0.19303602    -0.02400
Br697      Br  0.54662923  0.14622504  0.02296343     0.00400
Br698      Br  0.58459803  0.13053017  0.21261559    -0.04000
C699        C  0.88417343  0.44990018  0.08643240    -0.11300
C700        C  0.85927599  0.45992890  0.08123747     0.04100
C701        C  0.82955604  0.44544576  0.10551795    -0.11900
C702        C  0.82433954  0.42129947  0.13529937     0.19000
C703        C  0.84938367  0.41171258  0.14087599    -0.08900
C704        C  0.87883720  0.42579010  0.11637533    -0.01900
H705        H  0.81012743  0.45248401  0.10062958     0.06100
C706        C  0.79153167  0.40430901  0.15820691     0.21000
H707        H  0.89784264  0.41815414  0.12106404     0.10700
C708        C  0.76811512  0.36980647  0.15029130    -0.15300
C709        C  0.73735700  0.35201278  0.17215458     0.03700
C710        C  0.72951044  0.36869730  0.20305721    -0.10600
C711        C  0.75278303  0.40369934  0.21017392    -0.00600
C712        C  0.78348183  0.42152912  0.18793796    -0.05800
H713        H  0.77408687  0.35651081  0.12715783     0.06700
H714        H  0.74695782  0.41726703  0.23306707     0.10100
Br715      Br  0.84478543  0.37995138  0.18212113    -0.05500
Br716      Br  0.86308422  0.99130090  0.03977803    -0.02400
Br717      Br  0.70879839  0.30483113  0.15888811     0.00400
Br718      Br  0.81396183  0.46900253  0.19980903    -0.04000
C719        C  0.62598570  0.36495760  0.20144202    -0.11300
C720        C  0.64282641  0.38713247  0.16843628     0.04100
C721        C  0.62620171  0.40121733  0.14695104    -0.11900
C722        C  0.59307847  0.39421282  0.15791624     0.19000
C723        C  0.57591317  0.37170692  0.19019990    -0.08900
C724        C  0.59217049  0.35705068  0.21126003    -0.01900
H725        H  0.63948494  0.41835427  0.12193739     0.05500
C726        C  0.57693766  0.41059103  0.13515860     0.21000
H727        H  0.57853019  0.33989289  0.23609982     0.10700
C728        C  0.54745107  0.39018845  0.11205299    -0.15300
C729        C  0.53173643  0.40474280  0.08965036     0.03700
C730        C  0.54624481  0.44078248  0.08918389    -0.10600
C731        C  0.57583977  0.46105742  0.11253333    -0.00600
C732        C  0.59093079  0.44629630  0.13563174    -0.05800
H733        H  0.53661642  0.36269931  0.11142784     0.06700
H734        H  0.58712565  0.48859360  0.11332967     0.10100
Br735      Br  0.53103261  0.36167689  0.20804755    -0.05500
Br736      Br  0.68921684  0.40176123  0.15232559    -0.02400
Br737      Br  0.99122676  0.37344454  0.06001074     0.00400
Br738      Br  0.62981104  0.47591440  0.16857158    -0.04000
C739        C  0.62627214  0.26662598  0.29713234    -0.11300
C740        C  0.64537998  0.25314271  0.31453694     0.04100
C741        C  0.62832760  0.22199648  0.33532018    -0.11900
C742        C  0.59227383  0.20434039  0.34022687     0.19000
C743        C  0.57332690  0.21856415  0.32393775    -0.08900
C744        C  0.59021102  0.24844305  0.30081639    -0.01900
H745        H  0.64327370  0.21158692  0.34792722     0.05500
C746        C  0.57565177  0.17227283  0.36424359     0.21000
H747        H  0.57521417  0.25821814  0.28675669     0.10700
C748        C  0.58705524  0.17324890  0.40393866    -0.15300
C749        C  0.57332740  0.14358576  0.42740259     0.03700
C750        C  0.54736887  0.11226458  0.41149739    -0.10600
C751        C  0.53564028  0.11109575  0.37199594    -0.00600
C752        C  0.54997791  0.14066014  0.34806113    -0.05800
H753        H  0.60677273  0.19720378  0.41670708     0.06700
H754        H  0.51609508  0.08698512  0.35936865     0.10100
Br755      Br  0.52523853  0.20048202  0.33563467    -0.05500
Br756      Br  0.69450221  0.27531992  0.30928316    -0.02400
Br757      Br  0.59002400  0.14733688  0.48157889     0.00400
Br758      Br  0.53505849  0.13571817  0.29294454    -0.04000
C759        C  0.88397206  0.44288330  0.41211120    -0.11300
C760        C  0.85640858  0.40965540  0.42069477     0.04100
C761        C  0.82710627  0.39476886  0.39612135    -0.11900
C762        C  0.82439629  0.41269282  0.36327206     0.19000
C763        C  0.85140579  0.44614684  0.35517978    -0.08900
C764        C  0.88092043  0.46096001  0.37946902    -0.01900
H765        H  0.80592438  0.36937679  0.40323976     0.05500
C766        C  0.79225842  0.39690709  0.33941312     0.21000
H767        H  0.90170700  0.48661403  0.37261300     0.10700
C768        C  0.76724343  0.40578311  0.34813400    -0.15300
C769        C  0.73649963  0.39169256  0.32624152     0.03700
C770        C  0.73007340  0.36775706  0.29498584    -0.10600
C771        C  0.75535353  0.35881586  0.28660895    -0.00600
C772        C  0.78622381  0.37324150  0.30837854    -0.05800
H773        H  0.77194354  0.42424644  0.37187812     0.06700
H774        H  0.75108676  0.34046219  0.26291912     0.10100
Br775      Br  0.84891193  0.47234423  0.31124077    -0.05500
Br776      Br  0.85575775  0.38480583  0.46775820    -0.02400
Br777      Br  0.70626391  0.40868801  0.33912309     0.00400
Br778      Br  0.81976177  0.36052287  0.29435963    -0.04000
C779        C  0.55586347  0.45477799  0.40216310    -0.11300
C780        C  0.59220576  0.46963106  0.39949218     0.04100
C781        C  0.60646272  0.45451115  0.37523549    -0.11900
C782        C  0.58552022  0.42547661  0.35201826     0.19000
C783        C  0.54951924  0.41177331  0.35262729    -0.08900
C784        C  0.53502216  0.42613712  0.37785088    -0.01900
H785        H  0.63421156  0.46508911  0.37519021     0.05500
C786        C  0.60133219  0.40782750  0.33090410     0.21000
H787        H  0.50718271  0.41479380  0.37832892     0.10700
C788        C  0.59211053  0.37480893  0.34348051    -0.15300
C789        C  0.60614354  0.35676004  0.32502802     0.03700
C790        C  0.63001086  0.37164762  0.29287219    -0.10600
C791        C  0.64054156  0.40558024  0.28167268    -0.00600
C792        C  0.62642399  0.42363219  0.30031496    -0.05800
H793        H  0.57365539  0.36290799  0.36789807     0.06700
H794        H  0.65956161  0.41795444  0.25793461     0.10100
Br795      Br  0.51912701  0.37376279  0.31914039    -0.05500
Br796      Br  0.62454764  0.50964992  0.42863381    -0.02400
Br797      Br  0.59003775  0.31176587  0.34516743     0.00400
Br798      Br  0.64137771  0.46922058  0.28204347    -0.04000
C799        C  0.93949228  0.05555661  0.91053255    -0.11300
C800        C  0.95319766  0.07235086  0.87331849     0.04100
C801        C  0.93618541  0.08601709  0.85181924    -0.11900
C802        C  0.90583533  0.08373574  0.86693643     0.19000
C803        C  0.89205410  0.06695733  0.90394152    -0.08900
C804        C  0.90892136  0.05312977  0.92543074    -0.01900
H805        H  0.94712971  0.09925779  0.82352916     0.05500
C806        C  0.88990763  0.10038806  0.84446558     0.21000
H807        H  0.89805880  0.04039434  0.95399130     0.10700
C808        C  0.85875487  0.08022728  0.82387790    -0.15300
C809        C  0.84394682  0.09552649  0.80112948     0.03700
C810        C  0.86035705  0.13146098  0.79897525    -0.10600
C811        C  0.89089038  0.15156572  0.82051742    -0.00600
C812        C  0.90596106  0.13632725  0.84272597    -0.05800
H813        H  0.84615974  0.05257370  0.82521669     0.06700
H814        H  0.90354431  0.17922594  0.81905944     0.10100
Br815      Br  0.85110527  0.06355220  0.92704072    -0.05500
Br816      Br  0.49647818  0.08016372  0.85196188    -0.02400
Br817      Br  0.80107946  0.06652182  0.77423114     0.00400
Br818      Br  0.94848627  0.16559541  0.87017271    -0.04000
C819        C  0.87215950  0.23661238  0.80037672    -0.11300
C820        C  0.85688838  0.24444610  0.83318738     0.04100
C821        C  0.87539049  0.27592621  0.85297935    -0.11900
C822        C  0.90904637  0.29992013  0.84110293     0.19000
C823        C  0.92517934  0.29148935  0.81032354    -0.08900
C824        C  0.90684210  0.25996828  0.79049035    -0.01900
H825        H  0.86311082  0.28217980  0.87724534     0.05500
C826        C  0.92610874  0.33390781  0.86058232     0.21000
H827        H  0.91954317  0.25400152  0.76648851     0.10700
C828        C  0.95053149  0.34124136  0.89089440    -0.15300
C829        C  0.96419786  0.37181148  0.91282368     0.03700
C830        C  0.95289801  0.39519718  0.90501840    -0.10600
C831        C  0.92994894  0.38870934  0.87312986    -0.00600
C832        C  0.91648399  0.35824084  0.85098499    -0.05800
H833        H  0.95858856  0.32293117  0.89785936     0.06700
H834        H  0.92159362  0.40681412  0.86633948     0.10100
Br835      Br  0.97155772  0.32280343  0.79331718    -0.05500
Br836      Br  0.81059093  0.21510416  0.85176930    -0.02400
Br837      Br  0.99954016  0.38136948  0.95154841     0.00400
Br838      Br  0.88459865  0.35049887  0.80831098    -0.04000
C839        C  0.76403857  0.14077056  0.79829409    -0.11300
C840        C  0.74132348  0.15370059  0.79554329     0.04100
C841        C  0.71119229  0.13915859  0.81888552    -0.11900
C842        C  0.70374860  0.11238144  0.84563601     0.19000
C843        C  0.72699252  0.10036286  0.84959905    -0.08900
C844        C  0.75697878  0.11464565  0.82603305    -0.01900
H845        H  0.69365028  0.14887779  0.81642756     0.05500
C846        C  0.67114224  0.09658972  0.86845898     0.21000
H847        H  0.77457010  0.10505403  0.82896202     0.10700
C848        C  0.64218677  0.06832126  0.85174945    -0.15300
C849        C  0.61108184  0.05149034  0.87317347     0.03700
C850        C  0.60881095  0.06302386  0.91229346    -0.10600
C851        C  0.63791724  0.09175791  0.92862766    -0.00600
C852        C  0.66886852  0.10869436  0.90687544    -0.05800
H853        H  0.64402354  0.05896070  0.82209932     0.06700
H854        H  0.63656119  0.10118896  0.95840628     0.10100
Br855      Br  0.71860757  0.06442772  0.88666932    -0.05500
Br856      Br  0.75142681  0.19284832  0.76322353    -0.02400
Br857      Br  0.57374835  0.01168179  0.84820501     0.00400
Br858      Br  0.70747985  0.14802468  0.93063570    -0.04000
C859        C  0.94327873  0.05905024  0.58981690    -0.11300
C860        C  0.93731704  0.08476760  0.57422742     0.04100
C861        C  0.92277406  0.09936762  0.59904113    -0.11900
C862        C  0.91411971  0.08921675  0.63940007     0.19000
C863        C  0.92011883  0.06386146  0.65517464    -0.08900
C864        C  0.93475496  0.04922348  0.63055695    -0.01900
H865        H  0.91821954  0.11893033  0.58677493     0.05500
C866        C  0.89746716  0.10445080  0.66373585     0.21000
H867        H  0.93880269  0.02947917  0.64324094     0.10700
C868        C  0.86367952  0.09600976  0.65432698    -0.15300
C869        C  0.84706226  0.11031516  0.67585238     0.03700
C870        C  0.86436016  0.13366575  0.70757661    -0.10600
C871        C  0.89851128  0.14249203  0.71639754    -0.00600
C872        C  0.91506030  0.12813176  0.69487722    -0.05800
H873        H  0.85007005  0.07796043  0.63018612     0.06700
H874        H  0.91271229  0.16125335  0.73962976     0.10100
Br875      Br  0.90728745  0.04730681  0.70954478    -0.05500
Br876      Br  0.94945686  0.10254583  0.52015684    -0.02400
Br877      Br  0.80037944  0.09547598  0.66133261     0.00400
Br878      Br  0.96206364  0.14266743  0.70802270    -0.04000
C879        C  0.94062861  0.39049000  0.59028859    -0.11300
C880        C  0.91679979  0.35777163  0.57428269     0.04100
C881        C  0.90248937  0.32885075  0.59922672    -0.11900
C882        C  0.91119088  0.33139261  0.64013407     0.19000
C883        C  0.93470454  0.36365283  0.65637422    -0.08900
C884        C  0.94897909  0.39279851  0.63165545    -0.01900
H885        H  0.88440155  0.30404172  0.58656951     0.05500
C886        C  0.89643854  0.29974026  0.66467702     0.21000
H887        H  0.96725509  0.41729494  0.64479457     0.10700
C888        C  0.90848869  0.27688345  0.65839579    -0.15300
C889        C  0.89468062  0.24624081  0.68014816     0.03700
C890        C  0.86842308  0.23809834  0.70900476    -0.10600
C891        C  0.85643371  0.26110076  0.71533437    -0.00600
C892        C  0.86983955  0.29144860  0.69302855    -0.05800
H893        H  0.92886041  0.28301211  0.63648943     0.06700
H894        H  0.83593520  0.25496944  0.73706511     0.10100
Br895      Br  0.94908544  0.36882573  0.71171832    -0.05500
Br896      Br  0.90148484  0.34985965  0.51917014    -0.02400
Br897      Br  0.91407435  0.21762135  0.67069707     0.00400
Br898      Br  0.84981897  0.31983296  0.70055665    -0.04000
C899        C  0.76380799  0.13752635  0.70635952    -0.11300
C900        C  0.75828096  0.15437957  0.67384413     0.04100
C901        C  0.72721393  0.13791841  0.65239987    -0.11900
C902        C  0.70128108  0.10468320  0.66249577     0.19000
C903        C  0.70696898  0.08738074  0.69401242    -0.08900
C904        C  0.73794766  0.10375662  0.71557891    -0.01900
H905        H  0.72309448  0.15124240  0.62787033     0.05500
C906        C  0.66902836  0.08811085  0.63871479     0.21000
H907        H  0.74198865  0.08987828  0.73947602     0.10700
C908        C  0.66879584  0.07323706  0.60148963    -0.15300
C909        C  0.63904514  0.05760238  0.57773120     0.03700
C910        C  0.60858925  0.05684832  0.59087743    -0.10600
C911        C  0.60889150  0.07158927  0.62857939    -0.00600
C912        C  0.63883086  0.08726823  0.65232474    -0.05800
H913        H  0.69186099  0.07352683  0.59104438     0.06700
H914        H  0.58601339  0.07150836  0.63928469     0.10100
Br915      Br  0.67336934  0.04117564  0.70802379    -0.05500
Br916      Br  0.79071336  0.20047102  0.65845515    -0.02400
Br917      Br  0.64152159  0.53586364  0.52914234     0.00400
Br918      Br  0.63778890  0.10792644  0.70270225    -0.04000
C919        C  0.83256640  0.67008546  0.71348396     0.46100
H920        H  0.83338309  0.67060727  0.67992392    -0.02900
C921        C  0.83142468  0.66917750  0.79230574     0.46100
H922        H  0.83112129  0.66832274  0.82586865    -0.02900
C923        C  0.85303622  0.70592773  0.73308072    -0.16600
C924        C  0.79586303  0.65430045  0.73145875    -0.16400
C925        C  0.84769611  0.64923686  0.73203101    -0.16800
C926        C  0.85261015  0.70537947  0.77475512    -0.16700
C927        C  0.79559131  0.65431468  0.77310234    -0.16300
C928        C  0.84677107  0.64879549  0.77354775    -0.16600
C929        C  0.66141146  0.83466369  0.28912805     0.46100
H930        H  0.66165999  0.83540592  0.32267981    -0.02900
C931        C  0.66088887  0.83197044  0.21027868     0.46100
H932        H  0.66030665  0.83040059  0.17675765    -0.02900
C933        C  0.69783672  0.85222413  0.27015337    -0.16600
C934        C  0.64296184  0.79800737  0.27195025    -0.16400
C935        C  0.64340331  0.85241188  0.26930859    -0.16800
C936        C  0.69759047  0.85067934  0.22844408    -0.16700
C937        C  0.64231987  0.79660988  0.23075249    -0.16300
C938        C  0.64327348  0.85106747  0.22754016    -0.16600
O939        O  0.93195025  0.99579183  0.05289929    -0.77900
C940        C  0.53652998  0.57890727  0.06720860     0.83200
O941        O  0.97069216  0.52605546  0.91678753    -0.79000
O942        O  0.57963685  0.54412822  0.97516433    -0.80500
O943        O  0.50014983  0.94207461  0.05503180    -0.80300
O944        O  0.92654435  0.94406441  0.04969176    -0.78900
Zn945      Zn  0.97368185  0.52688361  0.01923452     1.55700
O946        O  0.55195194  0.98903461  0.05352670    -0.80300
Cd947      Cd  0.97050498  0.95365517  0.01794603     1.59700
Cd948      Cd  0.99752927  0.50363027  0.93927490     1.59600
O949        O  0.95864453  0.92100272  0.96896576    -0.80300
O950        O  0.99614044  0.50233672  0.99979654    -1.90800
Cd951      Cd  0.54400212  0.52393288  0.02179260     1.59900
O952        O  0.97728284  0.95499032  0.91472084    -0.80200
O953        O  0.55369652  0.56402157  0.06011224    -0.78900
C954        C  0.95658988  0.54091494  0.93466410     0.83600
C955        C  0.91581644  0.96400570  0.06146046     0.83300
O956        O  0.50647343  0.56801179  0.05278403    -0.77800
C957        C  0.53192366  0.95812827  0.06456345     0.84100
O958        O  0.95636894  0.54311502  0.97308530    -0.77900
C959        C  0.96355635  0.92544055  0.93091171     0.84200
C960        C  0.57698618  0.54538486  0.93690358     0.84600
O961        O  0.54783334  0.53203687  0.91939834    -0.80400
O962        O  0.50089826  0.56421297  0.44351418    -0.77900
C963        C  0.91587820  0.95914383  0.43656771     0.83200
O964        O  0.97285883  0.52786860  0.58254964    -0.79000
O965        O  0.95820034  0.91965008  0.52672691    -0.80500
O966        O  0.55568240  0.99887412  0.44178533    -0.80300
O967        O  0.55353318  0.57104602  0.44821630    -0.78900
Zn968      Zn  0.97082558  0.52361822  0.47945183     1.55700
O969        O  0.50794497  0.94765626  0.44164013    -0.80300
Cd970      Cd  0.54491279  0.52838120  0.48014176     1.59700
Cd971      Cd  0.99667822  0.50178158  0.56058605     1.59600
O972        O  0.57982004  0.54442965  0.52737836    -0.80300
O973        O  0.99615118  0.50213399  0.49976667    -1.90800
Cd974      Cd  0.97402964  0.95403752  0.47903006     1.59900
O975        O  0.54721390  0.52642769  0.58296895    -0.80200
O976        O  0.92992259  0.94172380  0.44620010    -0.78900
C977        C  0.95799659  0.54196656  0.56485600     0.83600
C978        C  0.53307488  0.58067856  0.43548156     0.83300
O979        O  0.92888505  0.99040732  0.44699154    -0.77800
C980        C  0.53896989  0.96786218  0.43004106     0.84100
O981        O  0.95526196  0.54136034  0.52646539    -0.77900
C982        C  0.57680534  0.54161342  0.56573750     0.84200
C983        C  0.95716713  0.92223011  0.56506067     0.84600
O984        O  0.97017399  0.95146801  0.58236607    -0.80400
C985        C  0.62639125  0.76368248  0.20835816    -0.11300
C986        C  0.59370063  0.74973514  0.19045793     0.04100
C987        C  0.57927426  0.71809050  0.17070417    -0.11900
C988        C  0.59744636  0.70037026  0.16718154     0.19000
C989        C  0.63049016  0.71477008  0.18469068    -0.08900
C990        C  0.64371431  0.74518243  0.20680304    -0.01900
H991        H  0.55392629  0.70752717  0.15723431     0.05500
C992        C  0.58244666  0.66872724  0.14221123     0.21000
H993        H  0.66864928  0.75543036  0.22120917     0.10700
C994        C  0.57303179  0.67040119  0.10219544    -0.15300
C995        C  0.55779664  0.64132813  0.07754434     0.03700
C996        C  0.55211667  0.60985450  0.09258794    -0.10600
C997        C  0.56168719  0.60800661  0.13234543    -0.00600
C998        C  0.57615474  0.63690707  0.15744901    -0.05800
H999        H  0.57765104  0.69456516  0.08999074     0.06700
H1000       H  0.55703962  0.58373452  0.14423988     0.10100
Br1001     Br  0.66064137  0.69683452  0.17526630    -0.05500
Br1002     Br  0.56736931  0.77231500  0.19303771    -0.02400
Br1003     Br  0.54663142  0.64622620  0.02296378     0.00400
Br1004     Br  0.58459785  0.63053005  0.21261658    -0.04000
C1005       C  0.88417290  0.94990029  0.08643270    -0.11300
C1006       C  0.85927538  0.95992886  0.08123734     0.04100
C1007       C  0.82955538  0.94544581  0.10551771    -0.11900
C1008       C  0.82433889  0.92129978  0.13529948     0.19000
C1009       C  0.84938313  0.91171310  0.14087656    -0.08900
C1010       C  0.87883670  0.92579051  0.11637598    -0.01900
H1011       H  0.81012667  0.95248393  0.10062899     0.06100
C1012       C  0.79153095  0.90430934  0.15820691     0.21000
H1013       H  0.89784225  0.91815467  0.12106505     0.10700
C1014       C  0.76811456  0.86980669  0.15029160    -0.15300
C1015       C  0.73735646  0.85201299  0.17215492     0.03700
C1016       C  0.72950979  0.86869758  0.20305733    -0.10600
C1017       C  0.75278218  0.90369972  0.21017371    -0.00600
C1018       C  0.78348092  0.92152955  0.18793764    -0.05800
H1019       H  0.77408644  0.85651096  0.12715834     0.06700
H1020       H  0.74695684  0.91726747  0.23306664     0.10100
Br1021     Br  0.84478499  0.87995235  0.18212225    -0.05500
Br1022     Br  0.86308483  0.49130128  0.03977862    -0.02400
Br1023     Br  0.70879800  0.80483123  0.15888881     0.00400
Br1024     Br  0.81396056  0.96900314  0.19980816    -0.04000
C1025       C  0.62598508  0.86495762  0.20144191    -0.11300
C1026       C  0.64282562  0.88713196  0.16843570     0.04100
C1027       C  0.62620084  0.90121651  0.14695002    -0.11900
C1028       C  0.59307775  0.89421232  0.15791535     0.19000
C1029       C  0.57591262  0.87170702  0.19019953    -0.08900
C1030       C  0.59216995  0.85705096  0.21126003    -0.01900
H1031       H  0.63948393  0.91835302  0.12193607     0.05500
C1032       C  0.57693705  0.91059049  0.13515745     0.21000
H1033       H  0.57852981  0.83989362  0.23610012     0.10700
C1034       C  0.54745034  0.89018788  0.11205205    -0.15300
C1035       C  0.53173585  0.90474223  0.08964913     0.03700
C1036       C  0.54624442  0.94078195  0.08918238    -0.10600
C1037       C  0.57583954  0.96105690  0.11253154    -0.00600
C1038       C  0.59093050  0.94629581  0.13563007    -0.05800
H1039       H  0.53661548  0.86269864  0.11142721     0.06700
H1040       H  0.58712565  0.98859316  0.11332760     0.10100
Br1041     Br  0.53103234  0.86167768  0.20804743    -0.05500
Br1042     Br  0.68921600  0.90176061  0.15232494    -0.02400
Br1043     Br  0.99122624  0.87344422  0.06001120     0.00400
Br1044     Br  0.62981116  0.97591403  0.16856930    -0.04000
C1045       C  0.62627164  0.76662685  0.29713362    -0.11300
C1046       C  0.64537943  0.75314354  0.31453825     0.04100
C1047       C  0.62832701  0.72199729  0.33532146    -0.11900
C1048       C  0.59227324  0.70434119  0.34022806     0.19000
C1049       C  0.57332636  0.71856505  0.32393907    -0.08900
C1050       C  0.59021052  0.74844404  0.30081783    -0.01900
H1051       H  0.64327308  0.71158769  0.34792844     0.05500
C1052       C  0.57565110  0.67227340  0.36424441     0.21000
H1053       H  0.57521371  0.75821918  0.28675821     0.10700
C1054       C  0.58705438  0.67324918  0.40393953    -0.15300
C1055       C  0.57332664  0.64358575  0.42740299     0.03700
C1056       C  0.54736851  0.61226462  0.41149727    -0.10600
C1057       C  0.53564005  0.61109609  0.37199579    -0.00600
C1058       C  0.54997754  0.64066079  0.34806147    -0.05800
H1059       H  0.60677151  0.69720387  0.41670826     0.06700
H1060       H  0.51609521  0.58698567  0.35936821     0.10100
Br1061     Br  0.52523794  0.70048280  0.33563579    -0.05500
Br1062     Br  0.69450167  0.77532072  0.30928451    -0.02400
Br1063     Br  0.59002286  0.64733645  0.48157940     0.00400
Br1064     Br  0.53505833  0.63571936  0.29294483    -0.04000
C1065       C  0.88397192  0.94288387  0.41211094    -0.11300
C1066       C  0.85640885  0.90965551  0.42069345     0.04100
C1067       C  0.82710657  0.89476916  0.39611998    -0.11900
C1068       C  0.82439616  0.91269380  0.36327172     0.19000
C1069       C  0.85140520  0.94614827  0.35518053    -0.08900
C1070       C  0.88091986  0.96096124  0.37946977    -0.01900
H1071       H  0.80592506  0.86937677  0.40323759     0.05500
C1072       C  0.79225829  0.89690813  0.33941279     0.21000
H1073       H  0.90170604  0.98661557  0.37261456     0.10700
C1074       C  0.76724336  0.90578426  0.34813369    -0.15300
C1075       C  0.73649944  0.89169352  0.32624138     0.03700
C1076       C  0.73007306  0.86775784  0.29498592    -0.10600
C1077       C  0.75535313  0.85881651  0.28660902    -0.00600
C1078       C  0.78622350  0.87324229  0.30837848    -0.05800
H1079       H  0.77194353  0.92424754  0.37187748     0.06700
H1080       H  0.75108626  0.84046282  0.26291958     0.10100
Br1081     Br  0.84891074  0.97234654  0.31124294    -0.05500
Br1082     Br  0.85575833  0.88480486  0.46775565    -0.02400
Br1083     Br  0.70626371  0.90868895  0.33912308     0.00400
Br1084     Br  0.81976130  0.86052342  0.29435968    -0.04000
C1085       C  0.55586400  0.95477962  0.40216265    -0.11300
C1086       C  0.59220632  0.96963292  0.39949165     0.04100
C1087       C  0.60646341  0.95451322  0.37523474    -0.11900
C1088       C  0.58552096  0.92547868  0.35201747     0.19000
C1089       C  0.54951999  0.91177536  0.35262637    -0.08900
C1090       C  0.53502279  0.92613895  0.37785011    -0.01900
H1091       H  0.63421221  0.96509123  0.37518945     0.05500
C1092       C  0.60133287  0.90782936  0.33090367     0.21000
H1093       H  0.50718337  0.91479555  0.37832811     0.10700
C1094       C  0.59211120  0.87481092  0.34348065    -0.15300
C1095       C  0.60614388  0.85676167  0.32502830     0.03700
C1096       C  0.63001083  0.87164874  0.29287205    -0.10600
C1097       C  0.64054159  0.90558127  0.28167198    -0.00600
C1098       C  0.62642436  0.92363358  0.30031415    -0.05800
H1099       H  0.57365629  0.86291035  0.36789845     0.06700
H1100       H  0.65956139  0.91795508  0.25793364     0.10100
Br1101     Br  0.51912790  0.87376498  0.31913922    -0.05500
Br1102     Br  0.62454810  0.00965175  0.42863348    -0.02400
Br1103     Br  0.59003812  0.81176771  0.34516847     0.00400
Br1104     Br  0.64137806  0.96922179  0.28204198    -0.04000
C1105       C  0.93949226  0.55555590  0.91053174    -0.11300
C1106       C  0.95319702  0.57234933  0.87331709     0.04100
C1107       C  0.93618471  0.58601557  0.85181795    -0.11900
C1108       C  0.90583510  0.58373492  0.86693573     0.19000
C1109       C  0.89205438  0.56695717  0.90394127    -0.08900
C1110       C  0.90892174  0.55312967  0.92543045    -0.01900
H1111       H  0.94712859  0.59925572  0.82352752     0.05500
C1112       C  0.88990745  0.60038741  0.84446507     0.21000
H1113       H  0.89805961  0.54039485  0.95399132     0.10700
C1114       C  0.85875474  0.58022680  0.82387725    -0.15300
C1115       C  0.84394678  0.59552621  0.80112899     0.03700
C1116       C  0.86035703  0.63146073  0.79897511    -0.10600
C1117       C  0.89089030  0.65156528  0.82051749    -0.00600
C1118       C  0.90596090  0.63632662  0.84272584    -0.05800
H1119       H  0.84615960  0.55257324  0.82521576     0.06700
H1120       H  0.90354428  0.67922553  0.81905977     0.10100
Br1121     Br  0.85110611  0.56355284  0.92704111    -0.05500
Br1122     Br  0.49647958  0.58016563  0.85196354    -0.02400
Br1123     Br  0.80107955  0.56652174  0.77423030     0.00400
Br1124     Br  0.94848610  0.66559448  0.87017276    -0.04000
C1125       C  0.87215865  0.73661209  0.80037688    -0.11300
C1126       C  0.85688708  0.74444572  0.83318711     0.04100
C1127       C  0.87538881  0.77592588  0.85297913    -0.11900
C1128       C  0.90904483  0.79991989  0.84110317     0.19000
C1129       C  0.92517823  0.79148919  0.81032423    -0.08900
C1130       C  0.90684132  0.75996813  0.79049092    -0.01900
H1131       H  0.86310888  0.78217934  0.87724466     0.05500
C1132       C  0.92610701  0.83390751  0.86058275     0.21000
H1133       H  0.91954261  0.75400150  0.76648947     0.10700
C1134       C  0.95052978  0.84124105  0.89089480    -0.15300
C1135       C  0.96419632  0.87181124  0.91282394     0.03700
C1136       C  0.95289664  0.89519706  0.90501857    -0.10600
C1137       C  0.92994750  0.88870920  0.87313011    -0.00600
C1138       C  0.91648236  0.85824061  0.85098538    -0.05800
H1139       H  0.95858679  0.82293083  0.89785979     0.06700
H1140       H  0.92159228  0.90681405  0.86633967     0.10100
Br1141     Br  0.97155680  0.82280335  0.79331859    -0.05500
Br1142     Br  0.81058949  0.71510350  0.85176842    -0.02400
Br1143     Br  0.99953864  0.88136917  0.95154864     0.00400
Br1144     Br  0.88459700  0.85049867  0.80831140    -0.04000
C1145       C  0.76403825  0.64076966  0.79829345    -0.11300
C1146       C  0.74132278  0.65369924  0.79554235     0.04100
C1147       C  0.71119159  0.63915701  0.81888453    -0.11900
C1148       C  0.70374821  0.61238011  0.84563524     0.19000
C1149       C  0.72699244  0.60036192  0.84959850    -0.08900
C1150       C  0.75697871  0.61464494  0.82603255    -0.01900
H1151       H  0.69364922  0.64887596  0.81642641     0.05500
C1152       C  0.67114202  0.59658840  0.86845849     0.21000
H1153       H  0.77457042  0.60505359  0.82896175     0.10700
C1154       C  0.64218659  0.56831956  0.85174956    -0.15300
C1155       C  0.61108179  0.55148879  0.87317382     0.03700
C1156       C  0.60881104  0.56302290  0.91229352    -0.10600
C1157       C  0.63791731  0.59175728  0.92862714    -0.00600
C1158       C  0.66886842  0.60869358  0.90687466    -0.05800
H1159       H  0.64402327  0.55895853  0.82209945     0.06700
H1160       H  0.63656132  0.60118883  0.95840571     0.10100
Br1161     Br  0.71860793  0.56442712  0.88666909    -0.05500
Br1162     Br  0.75142561  0.69284672  0.76322236    -0.02400
Br1163     Br  0.57374828  0.51167972  0.84820623     0.00400
Br1164     Br  0.70747970  0.64802449  0.93063410    -0.04000
C1165       C  0.94327832  0.55904951  0.58981686    -0.11300
C1166       C  0.93731632  0.58476663  0.57422725     0.04100
C1167       C  0.92277353  0.59936681  0.59904101    -0.11900
C1168       C  0.91411954  0.58921623  0.63940010     0.19000
C1169       C  0.92011870  0.56386098  0.65517471    -0.08900
C1170       C  0.93475478  0.54922293  0.63055701    -0.01900
H1171       H  0.91821885  0.61892932  0.58677477     0.05500
C1172       C  0.89746714  0.60445044  0.66373588     0.21000
H1173       H  0.93880262  0.52947879  0.64324102     0.10700
C1174       C  0.86367969  0.59600981  0.65432677    -0.15300
C1175       C  0.84706255  0.61031539  0.67585201     0.03700
C1176       C  0.86436042  0.63366580  0.70757644    -0.10600
C1177       C  0.89851140  0.64249177  0.71639753    -0.00600
C1178       C  0.91506030  0.62813130  0.69487737    -0.05800
H1179       H  0.85007016  0.57796053  0.63018564     0.06700
H1180       H  0.91271252  0.66125312  0.73963001     0.10100
Br1181     Br  0.90728737  0.54730638  0.70954488    -0.05500
Br1182     Br  0.94945534  0.60254430  0.52015637    -0.02400
Br1183     Br  0.80037996  0.59547667  0.66133167     0.00400
Br1184     Br  0.96206349  0.64266654  0.70802314    -0.04000
C1185       C  0.94062753  0.89048998  0.59028866    -0.11300
C1186       C  0.91679861  0.85777161  0.57428283     0.04100
C1187       C  0.90248800  0.82885076  0.59922691    -0.11900
C1188       C  0.91118951  0.83139261  0.64013427     0.19000
C1189       C  0.93470327  0.86365281  0.65637437    -0.08900
C1190       C  0.94897794  0.89279849  0.63165556    -0.01900
H1191       H  0.88440020  0.80404179  0.58656973     0.05500
C1192       C  0.89643737  0.79974020  0.66467714     0.21000
H1193       H  0.96725397  0.91729483  0.64479462     0.10700
C1194       C  0.90848749  0.77688342  0.65839542    -0.15300
C1195       C  0.89467974  0.74624079  0.68014776     0.03700
C1196       C  0.86842259  0.73809831  0.70900490    -0.10600
C1197       C  0.85643316  0.76110065  0.71533493    -0.00600
C1198       C  0.86983867  0.79144847  0.69302910    -0.05800
H1199       H  0.92885896  0.78301209  0.63648865     0.06700
H1200       H  0.83593482  0.75496926  0.73706598     0.10100
Br1201     Br  0.94908431  0.86882567  0.71171843    -0.05500
Br1202     Br  0.90148395  0.84985956  0.51917020    -0.02400
Br1203     Br  0.91407329  0.71762126  0.67069573     0.00400
Br1204     Br  0.84981792  0.81983264  0.70055773    -0.04000
C1205       C  0.76380820  0.63752593  0.70635882    -0.11300
C1206       C  0.75828134  0.65437918  0.67384328     0.04100
C1207       C  0.72721445  0.63791800  0.65239880    -0.11900
C1208       C  0.70128156  0.60468281  0.66249457     0.19000
C1209       C  0.70696931  0.58738030  0.69401132    -0.08900
C1210       C  0.73794785  0.60375619  0.71557800    -0.01900
H1211       H  0.72309509  0.65124210  0.62786907     0.05500
C1212       C  0.66902889  0.58811058  0.63871354     0.21000
H1213       H  0.74198875  0.58987773  0.73947535     0.10700
C1214       C  0.66879633  0.57323685  0.60148836    -0.15300
C1215       C  0.63904568  0.55760231  0.57772989     0.03700
C1216       C  0.60858983  0.55684837  0.59087610    -0.10600
C1217       C  0.60889214  0.57158930  0.62857807    -0.00600
C1218       C  0.63883144  0.58726809  0.65232348    -0.05800
H1219       H  0.69186157  0.57352653  0.59104306     0.06700
H1220       H  0.58601395  0.57150846  0.63928345     0.10100
Br1221     Br  0.67336957  0.54117521  0.70802256    -0.05500
Br1222     Br  0.79071370  0.70047070  0.65845452    -0.02400
Br1223     Br  0.64152114  0.03586376  0.52914359     0.00400
Br1224     Br  0.63778953  0.60792623  0.70270107    -0.04000
loop_ 
_geom_bond_atom_site_label_1 
_geom_bond_atom_site_label_2 
_geom_bond_distance 
_geom_bond_site_symmetry_2 
_ccdc_geom_bond_type 
C1            H2   1.110       .  S
C1            C7   1.544       .  S
C1            C6   1.543       .  S
C1            C5   1.545       .  S
C3            H4   1.110       .  S
C3            C9   1.536       .  S
C3            C8   1.534       .  S
C3           C10   1.529       .  S
C5            C8   1.378       .  D
C5          C278   1.489       .  S
C6            C9   1.377       .  D
C6          C287   1.497       .  S
C7           C10   1.373       .  D
C7          C258   1.492       .  S
C8          C207   1.494       .  S
C9          C227   1.479       .  S
C10         C198   1.479       .  S
C11          H12   1.109       .  S
C11          C17   1.547       .  S
C11          C16   1.540       .  S
C11          C15   1.542       .  S
C13          H14   1.110       .  S
C13          C19   1.539       .  S
C13          C18   1.547       .  S
C13          C20   1.541       .  S
C15          C18   1.380       .  D
C15         C158   1.498       .  S
C16          C19   1.363       .  D
C16         C127   1.483       .  S
C17          C20   1.382       .  D
C17         C178   1.497       .  S
C18          C98   1.494       .  S
C19          C67   1.483       .  S
C20         C107   1.499       .  S
O21          C37   1.274       .  A
O21        Zn333   2.013       .  S
C22          O38   1.275       .  A
C22          O35   1.273       .  A
C22          C78   1.471       .  S
O23          C36   1.274       .  A
O23         Cd30   2.069       .  S
O24          C42   1.275       .  A
O24         Cd33   2.067   1_556  S
O25          C39   1.272       .  A
O25        Cd641   2.068   1_455  S
O26          C37   1.277       .  A
O26         Cd29   2.073       .  S
Zn27         O40   2.018   1_554  S
Zn27        O327   2.013   1_545  S
Zn27        O650   2.024       .  S
Zn27         O32   1.943   1_554  S
O28          C39   1.276       .  A
O28        Cd339   2.075       .  S
Cd29         O31   2.070   1_554  S
Cd29        O637   2.068       .  S
Cd29        O338   1.995   1_554  S
Cd30        O340   2.074   1_545  S
Cd30        O655   2.059       .  S
Cd30         O32   2.001       .  S
O31          C41   1.275       .  A
O32        Cd335   1.995   1_546  S
O32        Cd645   1.998   1_556  S
Cd33         O35   2.067       .  S
Cd33        O334   2.075   1_545  S
Cd33        O644   1.998   1_454  S
O34          C41   1.274       .  A
O34        Cd336   2.074       .  S
C36          O40   1.274       .  A
C36         C187   1.479       .  S
C37          C87   1.477       .  S
O38        Zn639   2.024   1_455  S
C39         C118   1.487       .  S
C41         C218   1.472       .  S
C42          O43   1.273       .  A
C42         C238   1.476       .  S
O43        Cd642   2.059   1_455  S
O44          C60   1.274       .  A
O44        Zn662   2.026   1_455  S
C45          O61   1.275       .  A
C45          O58   1.275       .  A
C45         C147   1.481       .  S
O46          C59   1.277       .  A
O46         Cd53   2.078       .  S
O47          C65   1.275       .  A
O47         Cd56   2.074       .  S
O48          C62   1.272       .  A
O48        Cd358   2.062       .  S
O49          C60   1.273       .  A
O49         Cd52   2.061       .  S
Zn50         O63   2.022       .  S
Zn50        O656   2.026       .  S
Zn50        O367   2.027   1_545  S
Zn50         O55   1.954       .  S
O51          C62   1.278       .  A
O51        Cd668   2.084   1_455  S
Cd52         O54   2.072       .  S
Cd52        O354   2.062   1_545  S
Cd52        O667   1.997   1_455  S
Cd53        O669   2.097       .  S
Cd53        O372   2.094   1_545  S
Cd53         O55   2.011       .  S
O54          C64   1.274       .  A
O55        Cd664   1.997       .  S
O55        Cd362   2.001   1_545  S
Cd56         O58   2.078       .  S
Cd56        O663   2.084       .  S
Cd56        O361   2.001       .  S
O57          C64   1.278       .  A
O57        Cd665   2.097   1_455  S
C59          O63   1.275       .  A
C59         C247   1.489       .  S
C60         C138   1.470       .  S
O61        Zn356   2.027       .  S
C62         C167   1.488       .  S
C64         C298   1.490       .  S
C65          O66   1.279       .  A
C65         C267   1.495       .  S
O66        Cd359   2.094       .  S
C67          C68   1.405       .  A
C67          C72   1.401       .  A
C68          C69   1.399       .  A
C68         Br84   1.914       .  S
C69          C70   1.407       .  A
C69          H73   1.085       .  S
C70          C74   1.486       .  S
C70          C71   1.411       .  A
C71          C72   1.397       .  A
C71         Br83   1.920       .  S
C72          H75   1.084       .  S
C74          C76   1.405       .  A
C74          C80   1.414       .  A
C76          C77   1.397       .  A
C76          H81   1.084       .  S
C77          C78   1.406       .  A
C77         Br85   1.919       .  S
C78          C79   1.401       .  A
C79          C80   1.400       .  A
C79          H82   1.084       .  S
C80         Br86   1.917       .  S
C87          C88   1.414       .  A
C87          C92   1.403       .  A
C88          C89   1.401       .  A
C88        Br410   1.921       .  S
C89          C90   1.402       .  A
C89          H93   1.082       .  S
C90          C94   1.477       .  S
C90          C91   1.407       .  A
C91          C92   1.396       .  A
C91        Br103   1.918       .  S
C92          H95   1.082       .  S
C94          C96   1.398       .  A
C94         C100   1.406       .  A
C96          C97   1.395       .  A
C96         H101   1.084       .  S
C97          C98   1.412       .  A
C97        Br105   1.905       .  S
C98          C99   1.409       .  A
C99         C100   1.400       .  A
C99         H102   1.083       .  S
C100       Br106   1.917       .  S
Br104       C394   1.921       .  S
C107        C108   1.415       .  A
C107        C112   1.408       .  A
C108        C109   1.399       .  A
C108       Br124   1.912       .  S
C109        C110   1.400       .  A
C109        H113   1.083       .  S
C110        C114   1.481       .  S
C110        C111   1.406       .  A
C111        C112   1.398       .  A
C111       Br123   1.917       .  S
C112        H115   1.082       .  S
C114        C116   1.400       .  A
C114        C120   1.407       .  A
C116        C117   1.399       .  A
C116        H121   1.083       .  S
C117        C118   1.418       .  A
C117       Br737   1.919   1_455  S
C118        C119   1.407       .  A
C119        C120   1.398       .  A
C119        H122   1.083       .  S
C120       Br126   1.918       .  S
Br125       C729   1.919       .  S
C127        C128   1.405       .  A
C127        C132   1.402       .  A
C128        C129   1.399       .  A
C128       Br144   1.914       .  S
C129        C130   1.406       .  A
C129        H133   1.081       .  S
C130        C134   1.484       .  S
C130        C131   1.410       .  A
C131        C132   1.398       .  A
C131       Br143   1.920       .  S
C132        H135   1.082       .  S
C134        C136   1.404       .  A
C134        C140   1.413       .  A
C136        C137   1.397       .  A
C136        H141   1.081       .  S
C137        C138   1.406       .  A
C137       Br145   1.919       .  S
C138        C139   1.402       .  A
C139        C140   1.401       .  A
C139        H142   1.081       .  S
C140       Br146   1.918       .  S
C147        C148   1.412       .  A
C147        C152   1.405       .  A
C148        C149   1.399       .  A
C148       Br164   1.915       .  S
C149        C150   1.400       .  A
C149        H153   1.085       .  S
C150        C154   1.477       .  S
C150        C151   1.407       .  A
C151        C152   1.401       .  A
C151       Br163   1.918       .  S
C152        H155   1.084       .  S
C154        C156   1.398       .  A
C154        C160   1.405       .  A
C156        C157   1.398       .  A
C156        H161   1.085       .  S
C157        C158   1.415       .  A
C157       Br165   1.912       .  S
C158        C159   1.409       .  A
C159        C160   1.400       .  A
C159        H162   1.084       .  S
C160       Br166   1.917       .  S
C167        C168   1.419       .  A
C167        C172   1.406       .  A
C168        C169   1.396       .  A
C168       Br184   1.914       .  S
C169        C170   1.397       .  A
C169        H173   1.086       .  S
C170        C174   1.479       .  S
C170        C171   1.409       .  A
C171        C172   1.398       .  A
C171       Br183   1.918       .  S
C172        H175   1.085       .  S
C174        C176   1.398       .  A
C174        C180   1.407       .  A
C176        C177   1.395       .  A
C176        H181   1.083       .  S
C177        C178   1.412       .  A
C177       Br185   1.905       .  S
C178        C179   1.410       .  A
C179        C180   1.400       .  A
C179        H182   1.082       .  S
C180       Br186   1.918       .  S
C187        C188   1.413       .  A
C187        C192   1.406       .  A
C188        C189   1.399       .  A
C188       Br816   1.920       .  S
C189        C190   1.402       .  A
C189        H193   1.085       .  S
C190        C194   1.478       .  S
C190        C191   1.407       .  A
C191        C192   1.399       .  A
C191       Br203   1.919       .  S
C192        H195   1.085       .  S
C194        C196   1.404       .  A
C194        C200   1.409       .  A
C196        C197   1.400       .  A
C196        H201   1.083       .  S
C197        C198   1.408       .  A
C197       Br205   1.918       .  S
C198        C199   1.401       .  A
C199        C200   1.397       .  A
C199        H202   1.083       .  S
C200       Br206   1.919       .  S
Br204       C800   1.920       .  S
C207        C208   1.416       .  A
C207        C212   1.408       .  A
C208        C209   1.397       .  A
C208       Br224   1.914       .  S
C209        C210   1.398       .  A
C209        H213   1.085       .  S
C210        C214   1.475       .  S
C210        C211   1.404       .  A
C211        C212   1.398       .  A
C211       Br223   1.916       .  S
C212        H215   1.084       .  S
C214        C216   1.400       .  A
C214        C220   1.408       .  A
C216        C217   1.398       .  A
C216        H221   1.084       .  S
C217        C218   1.410       .  A
C217       Br225   1.916       .  S
C218        C219   1.402       .  A
C219        C220   1.399       .  A
C219        H222   1.084       .  S
C220       Br226   1.917       .  S
C227        C228   1.412       .  A
C227        C232   1.402       .  A
C228        C229   1.396       .  A
C228       Br244   1.919       .  S
C229        C230   1.399       .  A
C229        H233   1.082       .  S
C230        C234   1.469       .  S
C230        C231   1.405       .  A
C231        C232   1.396       .  A
C231       Br243   1.918       .  S
C232        H235   1.081       .  S
C234        C236   1.398       .  A
C234        C240   1.404       .  A
C236        C237   1.396       .  A
C236        H241   1.085       .  S
C237        C238   1.415       .  A
C237       Br245   1.922       .  S
C238        C239   1.406       .  A
C239        C240   1.397       .  A
C239        H242   1.085       .  S
C240       Br246   1.918       .  S
C247        C248   1.418       .  A
C247        C252   1.409       .  A
C248        C249   1.399       .  A
C248       Br264   1.923       .  S
C249        C250   1.400       .  A
C249        H253   1.084       .  S
C250        C254   1.479       .  S
C250        C251   1.407       .  A
C251        C252   1.400       .  A
C251       Br263   1.920       .  S
C252        H255   1.084       .  S
C254        C256   1.401       .  A
C254        C260   1.407       .  A
C256        C257   1.399       .  A
C256        H261   1.084       .  S
C257        C258   1.411       .  A
C257       Br265   1.914       .  S
C258        C259   1.407       .  A
C259        C260   1.398       .  A
C259        H262   1.082       .  S
C260       Br266   1.919       .  S
C267        C268   1.421       .  A
C267        C272   1.410       .  A
C268        C269   1.400       .  A
C268       Br284   1.919       .  S
C269        C270   1.398       .  A
C269        H273   1.084       .  S
C270        C274   1.481       .  S
C270        C271   1.407       .  A
C271        C272   1.402       .  A
C271       Br283   1.918       .  S
C272        H275   1.083       .  S
C274        C276   1.402       .  A
C274        C280   1.407       .  A
C276        C277   1.400       .  A
C276        H281   1.084       .  S
C277        C278   1.409       .  A
C277       Br285   1.913       .  S
C278        C279   1.406       .  A
C279        C280   1.400       .  A
C279        H282   1.084       .  S
C280       Br286   1.917       .  S
C287        C288   1.414       .  A
C287        C292   1.409       .  A
C288        C289   1.401       .  A
C288       Br304   1.914       .  S
C289        C290   1.400       .  A
C289        H293   1.083       .  S
C290        C294   1.480       .  S
C290        C291   1.405       .  A
C291        C292   1.400       .  A
C291       Br303   1.917       .  S
C292        H295   1.083       .  S
C294        C296   1.397       .  A
C294        C300   1.407       .  A
C296        C297   1.398       .  A
C296        H301   1.083       .  S
C297        C298   1.415       .  A
C297       Br611   1.911       .  S
C298        C299   1.408       .  A
C299        C300   1.404       .  A
C299        H302   1.082       .  S
C300       Br306   1.918       .  S
Br305       C603   1.911       .  S
C307        H308   1.110       .  S
C307        C313   1.544       .  S
C307        C312   1.543       .  S
C307        C311   1.545       .  S
C309        H310   1.110       .  S
C309        C315   1.536       .  S
C309        C314   1.534       .  S
C309        C316   1.529       .  S
C311        C314   1.378       .  D
C311        C584   1.489       .  S
C312        C315   1.377       .  D
C312        C593   1.497       .  S
C313        C316   1.373       .  D
C313        C564   1.492       .  S
C314        C513   1.494       .  S
C315        C533   1.479       .  S
C316        C504   1.479       .  S
C317        H318   1.109       .  S
C317        C323   1.547       .  S
C317        C322   1.540       .  S
C317        C321   1.542       .  S
C319        H320   1.110       .  S
C319        C325   1.539       .  S
C319        C324   1.547       .  S
C319        C326   1.541       .  S
C321        C324   1.380       .  D
C321        C464   1.498       .  S
C322        C325   1.363       .  D
C322        C433   1.483       .  S
C323        C326   1.382       .  D
C323        C484   1.497       .  S
C324        C404   1.494       .  S
C325        C373   1.483       .  S
C326        C413   1.499       .  S
O327        C343   1.274       .  A
C328        O344   1.275       .  A
C328        O341   1.273       .  A
C328        C384   1.471       .  S
O329        C342   1.274       .  A
O329       Cd336   2.069       .  S
O330        C348   1.275       .  A
O330       Cd339   2.067   1_556  S
O331        C345   1.272       .  A
O331       Cd947   2.068   1_455  S
O332        C343   1.277       .  A
O332       Cd335   2.073       .  S
Zn333       O956   2.024       .  S
Zn333       O346   2.018   1_554  S
Zn333       O338   1.943   1_554  S
O334        C345   1.276       .  A
Cd335       O943   2.068       .  S
Cd335       O337   2.070   1_554  S
Cd336       O961   2.059       .  S
Cd336       O338   2.001       .  S
O337        C347   1.275       .  A
O338       Cd951   1.998   1_556  S
Cd339       O341   2.067       .  S
Cd339       O950   1.998   1_454  S
O340        C347   1.274       .  A
C342        O346   1.274       .  A
C342        C493   1.479       .  S
C343        C393   1.477       .  S
O344       Zn945   2.024   1_455  S
C345        C424   1.487       .  S
C347        C524   1.472       .  S
C348        O349   1.273       .  A
C348        C544   1.476       .  S
O349       Cd948   2.059   1_455  S
O350        C366   1.274       .  A
O350       Zn968   2.026   1_455  S
C351        O367   1.275       .  A
C351        O364   1.275       .  A
C351        C453   1.481       .  S
O352        C365   1.277       .  A
O352       Cd359   2.078       .  S
O353        C371   1.275       .  A
O353       Cd362   2.074       .  S
O354        C368   1.272       .  A
O355        C366   1.273       .  A
O355       Cd358   2.061       .  S
Zn356       O962   2.026       .  S
Zn356       O369   2.022       .  S
Zn356       O361   1.954       .  S
O357        C368   1.278       .  A
O357       Cd974   2.084   1_455  S
Cd358       O360   2.072       .  S
Cd358       O973   1.997   1_455  S
Cd359       O975   2.097       .  S
Cd359       O361   2.011       .  S
O360        C370   1.274       .  A
O361       Cd970   1.997       .  S
Cd362       O969   2.084       .  S
Cd362       O364   2.078       .  S
O363        C370   1.278       .  A
O363       Cd971   2.097   1_455  S
C365        O369   1.275       .  A
C365        C553   1.489       .  S
C366        C444   1.470       .  S
C368        C473   1.488       .  S
C370        C604   1.490       .  S
C371        O372   1.279       .  A
C371        C573   1.495       .  S
C373        C374   1.405       .  A
C373        C378   1.401       .  A
C374        C375   1.399       .  A
C374       Br390   1.914       .  S
C375        C376   1.407       .  A
C375        H379   1.085       .  S
C376        C380   1.486       .  S
C376        C377   1.411       .  A
C377        C378   1.397       .  A
C377       Br389   1.920       .  S
C378        H381   1.084       .  S
C380        C382   1.405       .  A
C380        C386   1.414       .  A
C382        C383   1.397       .  A
C382        H387   1.084       .  S
C383        C384   1.406       .  A
C383       Br391   1.919       .  S
C384        C385   1.401       .  A
C385        C386   1.400       .  A
C385        H388   1.084       .  S
C386       Br392   1.917       .  S
C393        C394   1.414       .  A
C393        C398   1.403       .  A
C394        C395   1.401       .  A
C395        C396   1.402       .  A
C395        H399   1.082       .  S
C396        C400   1.477       .  S
C396        C397   1.407       .  A
C397        C398   1.396       .  A
C397       Br409   1.918       .  S
C398        H401   1.082       .  S
C400        C402   1.398       .  A
C400        C406   1.406       .  A
C402        C403   1.395       .  A
C402        H407   1.084       .  S
C403        C404   1.412       .  A
C403       Br411   1.905       .  S
C404        C405   1.409       .  A
C405        C406   1.400       .  A
C405        H408   1.083       .  S
C406       Br412   1.917       .  S
C413        C414   1.415       .  A
C413        C418   1.408       .  A
C414        C415   1.399       .  A
C414       Br430   1.912       .  S
C415        C416   1.400       .  A
C415        H419   1.083       .  S
C416        C420   1.481       .  S
C416        C417   1.406       .  A
C417        C418   1.398       .  A
C417       Br429   1.917       .  S
C418        H421   1.082       .  S
C420        C422   1.400       .  A
C420        C426   1.407       .  A
C422        C423   1.399       .  A
C422        H427   1.083       .  S
C423        C424   1.418       .  A
C423      Br1043   1.919   1_455  S
C424        C425   1.407       .  A
C425        C426   1.398       .  A
C425        H428   1.083       .  S
C426       Br432   1.918       .  S
Br431      C1035   1.919       .  S
C433        C434   1.405       .  A
C433        C438   1.402       .  A
C434        C435   1.399       .  A
C434       Br450   1.914       .  S
C435        C436   1.406       .  A
C435        H439   1.081       .  S
C436        C440   1.484       .  S
C436        C437   1.410       .  A
C437        C438   1.398       .  A
C437       Br449   1.920       .  S
C438        H441   1.082       .  S
C440        C442   1.404       .  A
C440        C446   1.413       .  A
C442        C443   1.397       .  A
C442        H447   1.081       .  S
C443        C444   1.406       .  A
C443       Br451   1.919       .  S
C444        C445   1.402       .  A
C445        C446   1.401       .  A
C445        H448   1.081       .  S
C446       Br452   1.918       .  S
C453        C454   1.412       .  A
C453        C458   1.405       .  A
C454        C455   1.399       .  A
C454       Br470   1.915       .  S
C455        C456   1.400       .  A
C455        H459   1.085       .  S
C456        C460   1.477       .  S
C456        C457   1.407       .  A
C457        C458   1.401       .  A
C457       Br469   1.918       .  S
C458        H461   1.084       .  S
C460        C462   1.398       .  A
C460        C466   1.405       .  A
C462        C463   1.398       .  A
C462        H467   1.085       .  S
C463        C464   1.415       .  A
C463       Br471   1.912       .  S
C464        C465   1.409       .  A
C465        C466   1.400       .  A
C465        H468   1.084       .  S
C466       Br472   1.917       .  S
C473        C474   1.419       .  A
C473        C478   1.406       .  A
C474        C475   1.396       .  A
C474       Br490   1.914   1_565  S
C475        C476   1.397       .  A
C475        H479   1.086       .  S
C476        C480   1.479       .  S
C476        C477   1.409       .  A
C477        C478   1.398       .  A
C477       Br489   1.918       .  S
C478        H481   1.085       .  S
C480        C482   1.398       .  A
C480        C486   1.407       .  A
C482        C483   1.395       .  A
C482        H487   1.083       .  S
C483        C484   1.412       .  A
C483       Br491   1.905       .  S
C484        C485   1.410       .  A
C485        C486   1.400       .  A
C485        H488   1.082       .  S
C486       Br492   1.918       .  S
C493        C494   1.413       .  A
C493        C498   1.406       .  A
C494        C495   1.399       .  A
C494      Br1122   1.920       .  S
C495        C496   1.402       .  A
C495        H499   1.085       .  S
C496        C500   1.478       .  S
C496        C497   1.407       .  A
C497        C498   1.399       .  A
C497       Br509   1.919       .  S
C498        H501   1.085       .  S
C500        C502   1.404       .  A
C500        C506   1.409       .  A
C502        C503   1.400       .  A
C502        H507   1.083       .  S
C503        C504   1.408       .  A
C503       Br511   1.918       .  S
C504        C505   1.401       .  A
C505        C506   1.397       .  A
C505        H508   1.083       .  S
C506       Br512   1.919       .  S
Br510      C1106   1.920       .  S
C513        C514   1.416       .  A
C513        C518   1.408       .  A
C514        C515   1.397       .  A
C514       Br530   1.914       .  S
C515        C516   1.398       .  A
C515        H519   1.085       .  S
C516        C520   1.475       .  S
C516        C517   1.404       .  A
C517        C518   1.398       .  A
C517       Br529   1.916       .  S
C518        H521   1.084       .  S
C520        C522   1.400       .  A
C520        C526   1.408       .  A
C522        C523   1.398       .  A
C522        H527   1.084       .  S
C523        C524   1.410       .  A
C523       Br531   1.916       .  S
C524        C525   1.402       .  A
C525        C526   1.399       .  A
C525        H528   1.084       .  S
C526       Br532   1.917       .  S
C533        C534   1.412       .  A
C533        C538   1.402       .  A
C534        C535   1.396       .  A
C534       Br550   1.919       .  S
C535        C536   1.399       .  A
C535        H539   1.082       .  S
C536        C540   1.469       .  S
C536        C537   1.405       .  A
C537        C538   1.396       .  A
C537       Br549   1.918       .  S
C538        H541   1.081       .  S
C540        C542   1.398       .  A
C540        C546   1.404       .  A
C542        C543   1.396       .  A
C542        H547   1.085       .  S
C543        C544   1.415       .  A
C543       Br551   1.922       .  S
C544        C545   1.406       .  A
C545        C546   1.397       .  A
C545        H548   1.085       .  S
C546       Br552   1.918       .  S
C553        C554   1.418       .  A
C553        C558   1.409       .  A
C554        C555   1.399       .  A
C554       Br570   1.923       .  S
C555        C556   1.400       .  A
C555        H559   1.084       .  S
C556        C560   1.479       .  S
C556        C557   1.407       .  A
C557        C558   1.400       .  A
C557       Br569   1.920       .  S
C558        H561   1.084       .  S
C560        C562   1.401       .  A
C560        C566   1.407       .  A
C562        C563   1.399       .  A
C562        H567   1.084       .  S
C563        C564   1.411       .  A
C563       Br571   1.914       .  S
C564        C565   1.407       .  A
C565        C566   1.398       .  A
C565        H568   1.082       .  S
C566       Br572   1.919       .  S
C573        C574   1.421       .  A
C573        C578   1.410       .  A
C574        C575   1.400       .  A
C574       Br590   1.919       .  S
C575        C576   1.398       .  A
C575        H579   1.084       .  S
C576        C580   1.481       .  S
C576        C577   1.407       .  A
C577        C578   1.402       .  A
C577       Br589   1.918       .  S
C578        H581   1.083       .  S
C580        C582   1.402       .  A
C580        C586   1.407       .  A
C582        C583   1.400       .  A
C582        H587   1.084       .  S
C583        C584   1.409       .  A
C583       Br591   1.913       .  S
C584        C585   1.406       .  A
C585        C586   1.400       .  A
C585        H588   1.084       .  S
C586       Br592   1.917       .  S
C593        C594   1.414       .  A
C593        C598   1.409       .  A
C594        C595   1.401       .  A
C594       Br610   1.914       .  S
C595        C596   1.400       .  A
C595        H599   1.083       .  S
C596        C600   1.480       .  S
C596        C597   1.405       .  A
C597        C598   1.400       .  A
C597       Br609   1.917       .  S
C598        H601   1.083       .  S
C600        C602   1.397       .  A
C600        C606   1.407       .  A
C602        C603   1.398       .  A
C602        H607   1.083       .  S
C603        C604   1.415       .  A
C604        C605   1.408       .  A
C605        C606   1.404       .  A
C605        H608   1.082       .  S
C606       Br612   1.918       .  S
C613        H614   1.110       .  S
C613        C619   1.544       .  S
C613        C618   1.543       .  S
C613        C617   1.545       .  S
C615        H616   1.110       .  S
C615        C621   1.536       .  S
C615        C620   1.534       .  S
C615        C622   1.529       .  S
C617        C620   1.378       .  D
C617        C890   1.489       .  S
C618        C621   1.377       .  D
C618        C899   1.497       .  S
C619        C622   1.373       .  D
C619        C870   1.492       .  S
C620        C819   1.494       .  S
C621        C839   1.479       .  S
C622        C810   1.479       .  S
C623        H624   1.109       .  S
C623        C629   1.547       .  S
C623        C628   1.540       .  S
C623        C627   1.542       .  S
C625        H626   1.110       .  S
C625        C631   1.539       .  S
C625        C630   1.547       .  S
C625        C632   1.541       .  S
C627        C630   1.380       .  D
C627        C770   1.498       .  S
C628        C631   1.363       .  D
C628        C739   1.483       .  S
C629        C632   1.382       .  D
C629        C790   1.497       .  S
C630        C710   1.494       .  S
C631        C679   1.483       .  S
C632        C719   1.499       .  S
O633        C649   1.274       .  A
O633       Zn945   2.013       .  S
C634        O650   1.275       .  A
C634        O647   1.273       .  A
C634        C690   1.471       .  S
O635        C648   1.274       .  A
O635       Cd642   2.069       .  S
O636        C654   1.275       .  A
O636       Cd645   2.067   1_556  S
O637        C651   1.272       .  A
O638        C649   1.277       .  A
O638       Cd641   2.073       .  S
Zn639       O939   2.013   1_545  S
Zn639       O652   2.018   1_554  S
Zn639       O644   1.943   1_554  S
O640        C651   1.276       .  A
O640       Cd951   2.075       .  S
Cd641       O643   2.070   1_554  S
Cd641       O950   1.995   1_554  S
Cd642       O952   2.074   1_545  S
Cd642       O644   2.001       .  S
O643        C653   1.275       .  A
O644       Cd947   1.995   1_546  S
Cd645       O946   2.075   1_545  S
Cd645       O647   2.067       .  S
O646        C653   1.274       .  A
O646       Cd948   2.074       .  S
C648        O652   1.274       .  A
C648        C799   1.479       .  S
C649        C699   1.477       .  S
C651        C730   1.487       .  S
C653        C830   1.472       .  S
C654        O655   1.273       .  A
C654        C850   1.476       .  S
O656        C672   1.274       .  A
C657        O673   1.275       .  A
C657        O670   1.275       .  A
C657        C759   1.481       .  S
O658        C671   1.277       .  A
O658       Cd665   2.078       .  S
O659        C677   1.275       .  A
O659       Cd668   2.074       .  S
O660        C674   1.272       .  A
O660       Cd970   2.062       .  S
O661        C672   1.273       .  A
O661       Cd664   2.061       .  S
Zn662       O979   2.027   1_545  S
Zn662       O675   2.022       .  S
Zn662       O667   1.954       .  S
O663        C674   1.278       .  A
Cd664       O966   2.062   1_545  S
Cd664       O666   2.072       .  S
Cd665       O984   2.094   1_545  S
Cd665       O667   2.011       .  S
O666        C676   1.274       .  A
O667       Cd974   2.001   1_545  S
Cd668       O670   2.078       .  S
Cd668       O973   2.001       .  S
O669        C676   1.278       .  A
C671        O675   1.275       .  A
C671        C859   1.489       .  S
C672        C750   1.470       .  S
O673       Zn968   2.027       .  S
C674        C779   1.488       .  S
C676        C910   1.490       .  S
C677        O678   1.279       .  A
C677        C879   1.495       .  S
O678       Cd971   2.094       .  S
C679        C680   1.405       .  A
C679        C684   1.401       .  A
C680        C681   1.399       .  A
C680       Br696   1.914       .  S
C681        C682   1.407       .  A
C681        H685   1.085       .  S
C682        C686   1.486       .  S
C682        C683   1.411       .  A
C683        C684   1.397       .  A
C683       Br695   1.920       .  S
C684        H687   1.084       .  S
C686        C688   1.405       .  A
C686        C692   1.414       .  A
C688        C689   1.397       .  A
C688        H693   1.084       .  S
C689        C690   1.406       .  A
C689       Br697   1.919       .  S
C690        C691   1.401       .  A
C691        C692   1.400       .  A
C691        H694   1.084       .  S
C692       Br698   1.917       .  S
C699        C700   1.414       .  A
C699        C704   1.403       .  A
C700        C701   1.401       .  A
C700      Br1022   1.921       .  S
C701        C702   1.402       .  A
C701        H705   1.082       .  S
C702        C706   1.477       .  S
C702        C703   1.407       .  A
C703        C704   1.396       .  A
C703       Br715   1.918       .  S
C704        H707   1.082       .  S
C706        C708   1.398       .  A
C706        C712   1.406       .  A
C708        C709   1.395       .  A
C708        H713   1.084       .  S
C709        C710   1.412       .  A
C709       Br717   1.905       .  S
C710        C711   1.409       .  A
C711        C712   1.400       .  A
C711        H714   1.083       .  S
C712       Br718   1.917       .  S
Br716      C1006   1.921       .  S
C719        C720   1.415       .  A
C719        C724   1.408       .  A
C720        C721   1.399       .  A
C720       Br736   1.912       .  S
C721        C722   1.400       .  A
C721        H725   1.083       .  S
C722        C726   1.481       .  S
C722        C723   1.406       .  A
C723        C724   1.398       .  A
C723       Br735   1.917       .  S
C724        H727   1.082       .  S
C726        C728   1.400       .  A
C726        C732   1.407       .  A
C728        C729   1.399       .  A
C728        H733   1.083       .  S
C729        C730   1.418       .  A
C730        C731   1.407       .  A
C731        C732   1.398       .  A
C731        H734   1.083       .  S
C732       Br738   1.918       .  S
C739        C740   1.405       .  A
C739        C744   1.402       .  A
C740        C741   1.399       .  A
C740       Br756   1.914       .  S
C741        C742   1.406       .  A
C741        H745   1.081       .  S
C742        C746   1.484       .  S
C742        C743   1.410       .  A
C743        C744   1.398       .  A
C743       Br755   1.920       .  S
C744        H747   1.082       .  S
C746        C748   1.404       .  A
C746        C752   1.413       .  A
C748        C749   1.397       .  A
C748        H753   1.081       .  S
C749        C750   1.406       .  A
C749       Br757   1.919       .  S
C750        C751   1.402       .  A
C751        C752   1.401       .  A
C751        H754   1.081       .  S
C752       Br758   1.918       .  S
C759        C760   1.412       .  A
C759        C764   1.405       .  A
C760        C761   1.399       .  A
C760       Br776   1.915       .  S
C761        C762   1.400       .  A
C761        H765   1.085       .  S
C762        C766   1.477       .  S
C762        C763   1.407       .  A
C763        C764   1.401       .  A
C763       Br775   1.918       .  S
C764        H767   1.084       .  S
C766        C768   1.398       .  A
C766        C772   1.405       .  A
C768        C769   1.398       .  A
C768        H773   1.085       .  S
C769        C770   1.415       .  A
C769       Br777   1.912       .  S
C770        C771   1.409       .  A
C771        C772   1.400       .  A
C771        H774   1.084       .  S
C772       Br778   1.917       .  S
C779        C780   1.419       .  A
C779        C784   1.406       .  A
C780        C781   1.396       .  A
C780       Br796   1.914       .  S
C781        C782   1.397       .  A
C781        H785   1.086       .  S
C782        C786   1.479       .  S
C782        C783   1.409       .  A
C783        C784   1.398       .  A
C783       Br795   1.918       .  S
C784        H787   1.085       .  S
C786        C788   1.398       .  A
C786        C792   1.407       .  A
C788        C789   1.395       .  A
C788        H793   1.083       .  S
C789        C790   1.412       .  A
C789       Br797   1.905       .  S
C790        C791   1.410       .  A
C791        C792   1.400       .  A
C791        H794   1.082       .  S
C792       Br798   1.918       .  S
C799        C800   1.413       .  A
C799        C804   1.406       .  A
C800        C801   1.399       .  A
C801        C802   1.402       .  A
C801        H805   1.085       .  S
C802        C806   1.478       .  S
C802        C803   1.407       .  A
C803        C804   1.399       .  A
C803       Br815   1.919       .  S
C804        H807   1.085       .  S
C806        C808   1.404       .  A
C806        C812   1.409       .  A
C808        C809   1.400       .  A
C808        H813   1.083       .  S
C809        C810   1.408       .  A
C809       Br817   1.918       .  S
C810        C811   1.401       .  A
C811        C812   1.397       .  A
C811        H814   1.083       .  S
C812       Br818   1.919       .  S
C819        C820   1.416       .  A
C819        C824   1.408       .  A
C820        C821   1.397       .  A
C820       Br836   1.914       .  S
C821        C822   1.398       .  A
C821        H825   1.085       .  S
C822        C826   1.475       .  S
C822        C823   1.404       .  A
C823        C824   1.398       .  A
C823       Br835   1.916       .  S
C824        H827   1.084       .  S
C826        C828   1.400       .  A
C826        C832   1.408       .  A
C828        C829   1.398       .  A
C828        H833   1.084       .  S
C829        C830   1.410       .  A
C829       Br837   1.916       .  S
C830        C831   1.402       .  A
C831        C832   1.399       .  A
C831        H834   1.084       .  S
C832       Br838   1.917       .  S
C839        C840   1.412       .  A
C839        C844   1.402       .  A
C840        C841   1.397       .  A
C840       Br856   1.919       .  S
C841        C842   1.399       .  A
C841        H845   1.082       .  S
C842        C846   1.469       .  S
C842        C843   1.405       .  A
C843        C844   1.396       .  A
C843       Br855   1.918       .  S
C844        H847   1.081       .  S
C846        C848   1.398       .  A
C846        C852   1.404       .  A
C848        C849   1.396       .  A
C848        H853   1.085       .  S
C849        C850   1.415       .  A
C849       Br857   1.922       .  S
C850        C851   1.406       .  A
C851        C852   1.397       .  A
C851        H854   1.085       .  S
C852       Br858   1.918       .  S
C859        C860   1.418       .  A
C859        C864   1.409       .  A
C860        C861   1.399       .  A
C860       Br876   1.923       .  S
C861        C862   1.400       .  A
C861        H865   1.084       .  S
C862        C866   1.479       .  S
C862        C863   1.407       .  A
C863        C864   1.400       .  A
C863       Br875   1.920       .  S
C864        H867   1.084       .  S
C866        C868   1.401       .  A
C866        C872   1.407       .  A
C868        C869   1.399       .  A
C868        H873   1.084       .  S
C869        C870   1.411       .  A
C869       Br877   1.914       .  S
C870        C871   1.407       .  A
C871        C872   1.398       .  A
C871        H874   1.082       .  S
C872       Br878   1.919       .  S
C879        C880   1.421       .  A
C879        C884   1.410       .  A
C880        C881   1.400       .  A
C880       Br896   1.919       .  S
C881        C882   1.398       .  A
C881        H885   1.084       .  S
C882        C886   1.481       .  S
C882        C883   1.407       .  A
C883        C884   1.402       .  A
C883       Br895   1.918       .  S
C884        H887   1.083       .  S
C886        C888   1.402       .  A
C886        C892   1.407       .  A
C888        C889   1.400       .  A
C888        H893   1.084       .  S
C889        C890   1.409       .  A
C889       Br897   1.913       .  S
C890        C891   1.406       .  A
C891        C892   1.400       .  A
C891        H894   1.084       .  S
C892       Br898   1.917       .  S
C899        C900   1.414       .  A
C899        C904   1.409       .  A
C900        C901   1.401       .  A
C900       Br916   1.914       .  S
C901        C902   1.400       .  A
C901        H905   1.083       .  S
C902        C906   1.480       .  S
C902        C903   1.405       .  A
C903        C904   1.400       .  A
C903       Br915   1.917       .  S
C904        H907   1.083       .  S
C906        C908   1.397       .  A
C906        C912   1.407       .  A
C908        C909   1.398       .  A
C908        H913   1.083       .  S
C909        C910   1.415       .  A
C909      Br1223   1.911       .  S
C910        C911   1.408       .  A
C911        C912   1.404       .  A
C911        H914   1.082       .  S
C912       Br918   1.918       .  S
Br917      C1215   1.911       .  S
C919        H920   1.110       .  S
C919        C925   1.544       .  S
C919        C924   1.543       .  S
C919        C923   1.545       .  S
C921        H922   1.110       .  S
C921        C927   1.536       .  S
C921        C926   1.534       .  S
C921        C928   1.529       .  S
C923        C926   1.378       .  D
C923       C1196   1.489       .  S
C924        C927   1.377       .  D
C924       C1205   1.497       .  S
C925        C928   1.373       .  D
C925       C1176   1.492       .  S
C926       C1125   1.494       .  S
C927       C1145   1.479       .  S
C928       C1116   1.479       .  S
C929        H930   1.109       .  S
C929        C935   1.547       .  S
C929        C934   1.540       .  S
C929        C933   1.542       .  S
C931        H932   1.110       .  S
C931        C937   1.539       .  S
C931        C936   1.547       .  S
C931        C938   1.541       .  S
C933        C936   1.380       .  D
C933       C1076   1.498       .  S
C934        C937   1.363       .  D
C934       C1045   1.483       .  S
C935        C938   1.382       .  D
C935       C1096   1.497       .  S
C936       C1016   1.494       .  S
C937        C985   1.483       .  S
C938       C1025   1.499       .  S
O939        C955   1.274       .  A
C940        O956   1.275       .  A
C940        O953   1.273       .  A
C940        C996   1.471       .  S
O941        C954   1.274       .  A
O941       Cd948   2.069       .  S
O942        C960   1.275       .  A
O942       Cd951   2.067   1_556  S
O943        C957   1.272       .  A
O944        C955   1.277       .  A
O944       Cd947   2.073       .  S
Zn945       O958   2.018   1_554  S
Zn945       O950   1.943   1_554  S
O946        C957   1.276       .  A
Cd947       O949   2.070   1_554  S
Cd948       O950   2.001       .  S
O949        C959   1.275       .  A
Cd951       O953   2.067       .  S
O952        C959   1.274       .  A
C954        O958   1.274       .  A
C954       C1105   1.479       .  S
C955       C1005   1.477       .  S
C957       C1036   1.487       .  S
C959       C1136   1.472       .  S
C960        O961   1.273       .  A
C960       C1156   1.476       .  S
O962        C978   1.274       .  A
C963        O979   1.275       .  A
C963        O976   1.275       .  A
C963       C1065   1.481       .  S
O964        C977   1.277       .  A
O964       Cd971   2.078       .  S
O965        C983   1.275       .  A
O965       Cd974   2.074       .  S
O966        C980   1.272       .  A
O967        C978   1.273       .  A
O967       Cd970   2.061       .  S
Zn968       O981   2.022       .  S
Zn968       O973   1.954       .  S
O969        C980   1.278       .  A
Cd970       O972   2.072       .  S
Cd971       O973   2.011       .  S
O972        C982   1.274       .  A
Cd974       O976   2.078       .  S
O975        C982   1.278       .  A
C977        O981   1.275       .  A
C977       C1165   1.489       .  S
C978       C1056   1.470       .  S
C980       C1085   1.488       .  S
C982       C1216   1.490       .  S
C983        O984   1.279       .  A
C983       C1185   1.495       .  S
C985        C986   1.405       .  A
C985        C990   1.401       .  A
C986        C987   1.399       .  A
C986      Br1002   1.914       .  S
C987        C988   1.407       .  A
C987        H991   1.085       .  S
C988        C992   1.486       .  S
C988        C989   1.411       .  A
C989        C990   1.397       .  A
C989      Br1001   1.920       .  S
C990        H993   1.084       .  S
C992        C994   1.405       .  A
C992        C998   1.414       .  A
C994        C995   1.397       .  A
C994        H999   1.084       .  S
C995        C996   1.406       .  A
C995      Br1003   1.919       .  S
C996        C997   1.401       .  A
C997        C998   1.400       .  A
C997       H1000   1.084       .  S
C998      Br1004   1.917       .  S
C1005      C1006   1.414       .  A
C1005      C1010   1.403       .  A
C1006      C1007   1.401       .  A
C1007      C1008   1.402       .  A
C1007      H1011   1.082       .  S
C1008      C1012   1.477       .  S
C1008      C1009   1.407       .  A
C1009      C1010   1.396       .  A
C1009     Br1021   1.918       .  S
C1010      H1013   1.082       .  S
C1012      C1014   1.398       .  A
C1012      C1018   1.406       .  A
C1014      C1015   1.395       .  A
C1014      H1019   1.084       .  S
C1015      C1016   1.412       .  A
C1015     Br1023   1.905       .  S
C1016      C1017   1.409       .  A
C1017      C1018   1.400       .  A
C1017      H1020   1.083       .  S
C1018     Br1024   1.917       .  S
C1025      C1026   1.415       .  A
C1025      C1030   1.408       .  A
C1026      C1027   1.399       .  A
C1026     Br1042   1.912       .  S
C1027      C1028   1.400       .  A
C1027      H1031   1.083       .  S
C1028      C1032   1.481       .  S
C1028      C1029   1.406       .  A
C1029      C1030   1.398       .  A
C1029     Br1041   1.917       .  S
C1030      H1033   1.082       .  S
C1032      C1034   1.400       .  A
C1032      C1038   1.407       .  A
C1034      C1035   1.399       .  A
C1034      H1039   1.083       .  S
C1035      C1036   1.418       .  A
C1036      C1037   1.407       .  A
C1037      C1038   1.398       .  A
C1037      H1040   1.083       .  S
C1038     Br1044   1.918       .  S
C1045      C1046   1.405       .  A
C1045      C1050   1.402       .  A
C1046      C1047   1.399       .  A
C1046     Br1062   1.914       .  S
C1047      C1048   1.406       .  A
C1047      H1051   1.081       .  S
C1048      C1052   1.484       .  S
C1048      C1049   1.410       .  A
C1049      C1050   1.398       .  A
C1049     Br1061   1.920       .  S
C1050      H1053   1.082       .  S
C1052      C1054   1.404       .  A
C1052      C1058   1.413       .  A
C1054      C1055   1.397       .  A
C1054      H1059   1.081       .  S
C1055      C1056   1.406       .  A
C1055     Br1063   1.919       .  S
C1056      C1057   1.402       .  A
C1057      C1058   1.401       .  A
C1057      H1060   1.081       .  S
C1058     Br1064   1.918       .  S
C1065      C1066   1.412       .  A
C1065      C1070   1.405       .  A
C1066      C1067   1.399       .  A
C1066     Br1082   1.915       .  S
C1067      C1068   1.400       .  A
C1067      H1071   1.085       .  S
C1068      C1072   1.477       .  S
C1068      C1069   1.407       .  A
C1069      C1070   1.401       .  A
C1069     Br1081   1.918       .  S
C1070      H1073   1.084       .  S
C1072      C1074   1.398       .  A
C1072      C1078   1.405       .  A
C1074      C1075   1.398       .  A
C1074      H1079   1.085       .  S
C1075      C1076   1.415       .  A
C1075     Br1083   1.912       .  S
C1076      C1077   1.409       .  A
C1077      C1078   1.400       .  A
C1077      H1080   1.084       .  S
C1078     Br1084   1.917       .  S
C1085      C1086   1.419       .  A
C1085      C1090   1.406       .  A
C1086      C1087   1.396       .  A
C1086     Br1102   1.914   1_565  S
C1087      C1088   1.397       .  A
C1087      H1091   1.086       .  S
C1088      C1092   1.479       .  S
C1088      C1089   1.409       .  A
C1089      C1090   1.398       .  A
C1089     Br1101   1.918       .  S
C1090      H1093   1.085       .  S
C1092      C1094   1.398       .  A
C1092      C1098   1.407       .  A
C1094      C1095   1.395       .  A
C1094      H1099   1.083       .  S
C1095      C1096   1.412       .  A
C1095     Br1103   1.905       .  S
C1096      C1097   1.410       .  A
C1097      C1098   1.400       .  A
C1097      H1100   1.082       .  S
C1098     Br1104   1.918       .  S
C1105      C1106   1.413       .  A
C1105      C1110   1.406       .  A
C1106      C1107   1.399       .  A
C1107      C1108   1.402       .  A
C1107      H1111   1.085       .  S
C1108      C1112   1.478       .  S
C1108      C1109   1.407       .  A
C1109      C1110   1.399       .  A
C1109     Br1121   1.919       .  S
C1110      H1113   1.085       .  S
C1112      C1114   1.404       .  A
C1112      C1118   1.409       .  A
C1114      C1115   1.400       .  A
C1114      H1119   1.083       .  S
C1115      C1116   1.408       .  A
C1115     Br1123   1.918       .  S
C1116      C1117   1.401       .  A
C1117      C1118   1.397       .  A
C1117      H1120   1.083       .  S
C1118     Br1124   1.919       .  S
C1125      C1126   1.416       .  A
C1125      C1130   1.408       .  A
C1126      C1127   1.397       .  A
C1126     Br1142   1.914       .  S
C1127      C1128   1.398       .  A
C1127      H1131   1.085       .  S
C1128      C1132   1.475       .  S
C1128      C1129   1.404       .  A
C1129      C1130   1.398       .  A
C1129     Br1141   1.916       .  S
C1130      H1133   1.084       .  S
C1132      C1134   1.400       .  A
C1132      C1138   1.408       .  A
C1134      C1135   1.398       .  A
C1134      H1139   1.084       .  S
C1135      C1136   1.410       .  A
C1135     Br1143   1.916       .  S
C1136      C1137   1.402       .  A
C1137      C1138   1.399       .  A
C1137      H1140   1.084       .  S
C1138     Br1144   1.917       .  S
C1145      C1146   1.412       .  A
C1145      C1150   1.402       .  A
C1146      C1147   1.396       .  A
C1146     Br1162   1.919       .  S
C1147      C1148   1.399       .  A
C1147      H1151   1.082       .  S
C1148      C1152   1.469       .  S
C1148      C1149   1.405       .  A
C1149      C1150   1.396       .  A
C1149     Br1161   1.918       .  S
C1150      H1153   1.081       .  S
C1152      C1154   1.398       .  A
C1152      C1158   1.404       .  A
C1154      C1155   1.396       .  A
C1154      H1159   1.085       .  S
C1155      C1156   1.415       .  A
C1155     Br1163   1.922       .  S
C1156      C1157   1.406       .  A
C1157      C1158   1.397       .  A
C1157      H1160   1.085       .  S
C1158     Br1164   1.918       .  S
C1165      C1166   1.418       .  A
C1165      C1170   1.409       .  A
C1166      C1167   1.399       .  A
C1166     Br1182   1.923       .  S
C1167      C1168   1.400       .  A
C1167      H1171   1.084       .  S
C1168      C1172   1.479       .  S
C1168      C1169   1.407       .  A
C1169      C1170   1.400       .  A
C1169     Br1181   1.920       .  S
C1170      H1173   1.084       .  S
C1172      C1174   1.401       .  A
C1172      C1178   1.407       .  A
C1174      C1175   1.399       .  A
C1174      H1179   1.084       .  S
C1175      C1176   1.411       .  A
C1175     Br1183   1.914       .  S
C1176      C1177   1.407       .  A
C1177      C1178   1.398       .  A
C1177      H1180   1.082       .  S
C1178     Br1184   1.919       .  S
C1185      C1186   1.421       .  A
C1185      C1190   1.410       .  A
C1186      C1187   1.400       .  A
C1186     Br1202   1.919       .  S
C1187      C1188   1.398       .  A
C1187      H1191   1.084       .  S
C1188      C1192   1.481       .  S
C1188      C1189   1.407       .  A
C1189      C1190   1.402       .  A
C1189     Br1201   1.918       .  S
C1190      H1193   1.083       .  S
C1192      C1194   1.402       .  A
C1192      C1198   1.407       .  A
C1194      C1195   1.400       .  A
C1194      H1199   1.084       .  S
C1195      C1196   1.409       .  A
C1195     Br1203   1.913       .  S
C1196      C1197   1.406       .  A
C1197      C1198   1.400       .  A
C1197      H1200   1.084       .  S
C1198     Br1204   1.917       .  S
C1205      C1206   1.414       .  A
C1205      C1210   1.409       .  A
C1206      C1207   1.401       .  A
C1206     Br1222   1.914       .  S
C1207      C1208   1.400       .  A
C1207      H1211   1.083       .  S
C1208      C1212   1.480       .  S
C1208      C1209   1.405       .  A
C1209      C1210   1.400       .  A
C1209     Br1221   1.917       .  S
C1210      H1213   1.083       .  S
C1212      C1214   1.397       .  A
C1212      C1218   1.407       .  A
C1214      C1215   1.398       .  A
C1214      H1219   1.083       .  S
C1215      C1216   1.415       .  A
C1216      C1217   1.408       .  A
C1217      C1218   1.404       .  A
C1217      H1220   1.082       .  S
C1218     Br1224   1.918       .  S
