geometry optimzed in LAMMPS
_audit_creation_date              2020-12-01 
_audit_creation_method            'lammps2cif' 
_symmetry_space_group_name_H-M    'P1' 
_symmetry_Int_Tables_number       1 
_symmetry_cell_setting            triclinic 
loop_ 
_symmetry_equiv_pos_as_xyz 
  x,y,z 
_cell_length_a                    41.66076854 
_cell_length_b                    42.70653077176145 
_cell_length_c                    28.03378542535257 
_cell_angle_alpha                 90.00235024626838 
_cell_angle_beta                  89.99935654675275 
_cell_angle_gamma                 90.00052038614601 
loop_ 
_atom_site_label 
_atom_site_type_symbol 
_atom_site_fract_x 
_atom_site_fract_y 
_atom_site_fract_z 
_atom_site_charge 
O1          O  0.22403681  0.21320978  0.46006881    -0.68900
O2          O  0.27605714  0.28683998  0.46009886    -0.69100
O3          O  0.28743605  0.22474712  0.45981052    -0.69000
O4          O  0.21266123  0.27530199  0.45981963    -0.69000
O5          O  0.21251023  0.27573381  0.03738800    -0.68900
O6          O  0.28752540  0.22446224  0.03739594    -0.68900
O7          O  0.27605390  0.28647253  0.03764770    -0.68900
O8          O  0.22398347  0.21372487  0.03766640    -0.69100
V9          V  0.25004813  0.25002412  0.46144790     1.35200
V10         V  0.25001833  0.25009858  0.03600204     1.35200
C11         C  0.21536679  0.20101826  0.99911375     0.80400
C12         C  0.28467163  0.29916883  0.99908885     0.80400
C13         C  0.30013141  0.21593502  0.49840387     0.80300
C14         C  0.19996324  0.28410683  0.49841635     0.80200
C15         C  0.18419421  0.06929206  0.07195845     0.89400
C16         C  0.14817869  0.06371758  0.06638099    -0.50900
C17         C  0.13599363  0.07462388  0.52435004     0.12300
C18         C  0.16099414  0.09084824  0.49206900     0.23300
C19         C  0.19935104  0.05463559  0.02734215    -0.51600
C20         C  0.18714366  0.06594448  0.48563349     0.12400
C21         C  0.18898468  0.10454101  0.06591355    -0.51100
C22         C  0.17714151  0.11583545  0.52385245     0.13000
H23         H  0.13399991  0.05038922  0.09182242     0.17500
H24         H  0.15121577  0.09993702  0.45788689     0.03200
H25         H  0.21789747  0.03674094  0.52860470     0.17800
H26         H  0.20231458  0.11886126  0.09110748     0.17600
C27         C  0.26957775  0.47891724  0.17614579    -0.08000
C28         C  0.25006244  0.50009526  0.15181782    -0.01800
C29         C  0.23054202  0.02126588  0.17615492    -0.07900
C30         C  0.23019873  0.02145677  0.22653127     0.13000
C31         C  0.25005304  0.50008050  0.25179556     0.00300
C32         C  0.26991258  0.47871223  0.22652201     0.12800
C33         C  0.28946564  0.45784958  0.25223841    -0.09700
C34         C  0.28954443  0.45791610  0.30198489    -0.09700
C35         C  0.27001605  0.47879335  0.32766069     0.12800
C36         C  0.25004582  0.50007078  0.30238498     0.00300
C37         C  0.21064003  0.04231108  0.25225679    -0.09900
C38         C  0.21054739  0.04222577  0.30200301    -0.09900
C39         C  0.23006707  0.02133740  0.32766949     0.13000
C40         C  0.23029475  0.02099437  0.37802051    -0.07900
C41         C  0.25002800  0.50004898  0.40230202    -0.01800
C42         C  0.26976997  0.47911380  0.37801232    -0.08000
H43         H  0.30488589  0.44131267  0.23401202     0.10300
H44         H  0.30501105  0.44143786  0.32024927     0.10300
H45         H  0.19522491  0.05885479  0.23403791     0.10400
H46         H  0.19507556  0.05869716  0.32027456     0.10400
H47         H  0.25006469  0.50009957  0.11305441     0.06900
H48         H  0.25002057  0.50004044  0.44107941     0.06900
C49         C  0.31590526  0.43088402  0.07193006     0.89400
C50         C  0.35192181  0.43644627  0.06634664    -0.50900
C51         C  0.36401535  0.42545414  0.52436596     0.12300
C52         C  0.33901692  0.40922767  0.49208473     0.23300
C53         C  0.30075004  0.44554608  0.02731921    -0.51600
C54         C  0.31287358  0.43413584  0.48562883     0.12400
C55         C  0.31110143  0.39563686  0.06588078    -0.51100
C56         C  0.32286235  0.38425129  0.52387666     0.13000
H57         H  0.36610632  0.44977141  0.09178610     0.17500
H58         H  0.34879935  0.40012845  0.45791020     0.03200
H59         H  0.28212081  0.46335816  0.52857696     0.17800
H60         H  0.29776708  0.38132141  0.09107449     0.17600
C61         C  0.06591158  0.31920892  0.42706575     0.89400
C62         C  0.10192938  0.31365465  0.43264628    -0.50900
C63         C  0.11401498  0.32465161  0.97464486     0.12300
C64         C  0.08901623  0.34087791  0.00692690     0.23300
C65         C  0.05076069  0.30454555  0.47167932    -0.51600
C66         C  0.06287010  0.31597115  0.01337745     0.12400
C67         C  0.06110054  0.35445539  0.43311174    -0.51100
C68         C  0.07286504  0.36585753  0.97513761     0.13000
H69         H  0.11611562  0.30033029  0.40720764     0.17500
H70         H  0.09879787  0.34997441  0.04110341     0.03200
H71         H  0.03211654  0.28675406  0.97042243     0.17800
H72         H  0.04776341  0.36876711  0.40791709     0.17600
C73         C  0.01975737  0.27099306  0.12099127    -0.08000
C74         C  0.50001049  0.25006228  0.09670183    -0.01800
C75         C  0.48027951  0.22911416  0.12098348    -0.07900
C76         C  0.48005773  0.22876478  0.17133437     0.13000
C77         C  0.50004079  0.25002727  0.19661885     0.00300
C78         C  0.02000946  0.27130699  0.17134310     0.12800
C79         C  0.03954260  0.29217969  0.19701908    -0.09700
C80         C  0.03946946  0.29224013  0.24676552    -0.09700
C81         C  0.01991771  0.27137545  0.27248178     0.12800
C82         C  0.50005409  0.25001095  0.24720832     0.00300
C83         C  0.46053994  0.20787379  0.19700065    -0.09900
C84         C  0.46063817  0.20778239  0.24674690    -0.09900
C85         C  0.48020101  0.22863272  0.27247272     0.13000
C86         C  0.48054927  0.22881840  0.32284934    -0.07900
C87         C  0.50007394  0.24998548  0.34718610    -0.01800
C88         C  0.01958762  0.27116549  0.32285781    -0.08000
H89         H  0.05500830  0.30865940  0.17875484     0.10300
H90         H  0.05489306  0.30877405  0.26499196     0.10300
H91         H  0.44506500  0.19140534  0.17872888     0.10400
H92         H  0.44522408  0.19123703  0.26496563     0.10400
H93         H  0.49999888  0.25007503  0.05792431     0.06900
H94         H  0.50007928  0.24997828  0.38594951     0.06900
C95         C  0.43419608  0.18080166  0.42705363     0.89400
C96         C  0.39818135  0.18638010  0.43263351    -0.50900
C97         C  0.38598845  0.17547739  0.97464658     0.12300
C98         C  0.41098997  0.15925566  0.00692739     0.23300
C99         C  0.44935572  0.19545878  0.47166730    -0.51600
C100        C  0.43713461  0.18416400  0.01336830     0.12400
C101        C  0.43898213  0.14555258  0.43310241    -0.51100
C102        C  0.42714329  0.13427320  0.97514182     0.13000
H103        H  0.38400365  0.19970810  0.40719110     0.17500
H104        H  0.40121134  0.15016318  0.04110748     0.03200
H105        H  0.46788545  0.21337592  0.97040390     0.17800
H106        H  0.45231054  0.13122998  0.40790955     0.17600
O107        O  0.47403181  0.03689762  0.03892760    -0.68900
O108        O  0.02604972  0.46326644  0.03891256    -0.69100
O109        O  0.03743001  0.02535915  0.03919815    -0.69000
O110        O  0.46265355  0.47480560  0.03917960    -0.69000
O111        O  0.46251033  0.47436930  0.46161784    -0.68900
O112        O  0.03752737  0.02563930  0.46160581    -0.68900
O113        O  0.02605336  0.46362908  0.46134754    -0.68900
O114        O  0.47398547  0.03637779  0.46134597    -0.69100
V115        V  0.50004165  0.50008261  0.03755603     1.35200
V116        V  0.00001938  0.50000365  0.46300176     1.35200
C117        C  0.46537019  0.04908192  0.49990144     0.80400
C118        C  0.03467188  0.45093001  0.49990350     0.80400
C119        C  0.05010389  0.03409409  0.50058643     0.80300
C120        C  0.44993427  0.46592326  0.50060249     0.80200
C121        C  0.43539250  0.10310940  0.99092258    -0.10400
C122        C  0.44722601  0.07771562  0.49850180    -0.11900
C123        C  0.44775848  0.19381661  0.38299079    -0.10400
C124        C  0.46135590  0.20804043  0.35181367    -0.11900
C125        C  0.44818563  0.19546348  0.05886370    -0.10400
C126        C  0.46092685  0.20873683  0.09170536    -0.11900
C127        C  0.05281975  0.42229792  0.49850514    -0.10400
C128        C  0.06464354  0.39703361  0.99089928    -0.11900
C129        C  0.05236076  0.30618015  0.38300494    -0.10400
C130        C  0.03877360  0.29194603  0.35182857    -0.11900
C131        C  0.05182861  0.30466827  0.05887694    -0.10400
C132        C  0.03909781  0.29138558  0.09171894    -0.11900
C133        C  0.39563624  0.43481789  0.50894879    -0.10400
C134        C  0.42111256  0.44743751  0.50181338    -0.11900
C135        C  0.28910886  0.45872093  0.40728432    -0.10400
C136        C  0.30183680  0.44543784  0.44012736    -0.11900
C137        C  0.30235278  0.44390736  0.11599415    -0.10600
C138        C  0.28876432  0.45813758  0.14717387    -0.11900
C139        C  0.07891661  0.05259414  0.50178858    -0.10400
C140        C  0.10438270  0.06523463  0.50892190    -0.11900
C141        C  0.21094274  0.04137248  0.40729897    -0.10400
C142        C  0.19819952  0.05464516  0.44014001    -0.11900
C143        C  0.19775542  0.05627292  0.11601795    -0.10400
C144        C  0.21135102  0.04204548  0.14719184    -0.11900
C145        C  0.18538969  0.14699850  0.50806664    -0.10400
C146        C  0.19723262  0.17232069  0.50047160    -0.11900
C147        C  0.17111101  0.30266430  0.99719500    -0.10400
C148        C  0.14563519  0.31528524  0.99006151    -0.11900
C149        C  0.35437696  0.18486373  0.99007587    -0.10400
C150        C  0.32891110  0.19750386  0.99721082    -0.11900
C151        C  0.31464276  0.35307380  0.50812003    -0.10400
C152        C  0.30282867  0.32773771  0.50053032    -0.11900
O153        O  0.22400724  0.21327446  0.96009242    -0.68900
O154        O  0.27602840  0.28690419  0.96007362    -0.69100
O155        O  0.28740400  0.22481087  0.95981819    -0.69000
O156        O  0.21262973  0.27536643  0.95981038    -0.69000
O157        O  0.21253644  0.27565075  0.53739745    -0.68900
O158        O  0.28755261  0.22438037  0.53738805    -0.68900
O159        O  0.27607784  0.28639041  0.53767276    -0.68900
O160        O  0.22400855  0.21364199  0.53764297    -0.69100
V161        V  0.25001742  0.25008954  0.96144709     1.35200
V162        V  0.25004427  0.25001560  0.53600284     1.35200
C163        C  0.21539014  0.20094690  0.49908233     0.80400
C164        C  0.28469383  0.29909817  0.49912186     0.80400
C165        C  0.30009947  0.21600480  0.99841462     0.80300
C166        C  0.19993234  0.28417786  0.99840409     0.80200
C167        C  0.18414490  0.06925442  0.57194551     0.89400
C168        C  0.14813006  0.06368248  0.56636115    -0.50900
C169        C  0.13603648  0.07466501  0.02437691     0.12300
C170        C  0.16103164  0.09089482  0.99209489     0.23300
C171        C  0.19930577  0.05459043  0.52733771    -0.51600
C172        C  0.18718236  0.06599343  0.98564452     0.12400
C173        C  0.18893997  0.10450173  0.56589049    -0.51100
C174        C  0.17717848  0.11587933  0.02388306     0.13000
H175        H  0.13394821  0.05035642  0.59180168     0.17500
H176        H  0.15124811  0.09998722  0.95791818     0.03200
H177        H  0.21794217  0.03678509  0.02859886     0.17800
H178        H  0.20227255  0.11882289  0.59108027     0.17600
C179        C  0.26952111  0.47888900  0.67614632    -0.08000
C180        C  0.25000059  0.50006190  0.65181763    -0.01800
C181        C  0.23048513  0.02123738  0.67615391    -0.07900
C182        C  0.23015155  0.02143842  0.72653017     0.13000
C183        C  0.25001145  0.50006783  0.75179527     0.00300
C184        C  0.26986550  0.47869397  0.72652258     0.12800
C185        C  0.28942415  0.45783700  0.75223988    -0.09700
C186        C  0.28951623  0.45791650  0.80198607    -0.09700
C187        C  0.26999612  0.47880178  0.82766079     0.12800
C188        C  0.25001800  0.50007160  0.80238464     0.00300
C189        C  0.21059844  0.04229838  0.75225477    -0.09900
C190        C  0.21051935  0.04222634  0.80200124    -0.09900
C191        C  0.23004738  0.02134601  0.82766870     0.13000
C192        C  0.23029252  0.02101930  0.87802013    -0.07900
C193        C  0.25003380  0.50008111  0.90230160    -0.01800
C194        C  0.26976739  0.47913847  0.87801200    -0.08000
H195        H  0.30483951  0.44129521  0.73401444     0.10300
H196        H  0.30498769  0.44144299  0.82025105     0.10300
H197        H  0.19517822  0.05883717  0.73403491     0.10400
H198        H  0.19505246  0.05870241  0.82027220     0.10400
H199        H  0.24999649  0.50005983  0.61305407     0.06900
H200        H  0.25004047  0.50008512  0.94107910     0.06900
C201        C  0.31585706  0.43084690  0.57194336     0.89400
C202        C  0.35187449  0.43641052  0.56636722    -0.50900
C203        C  0.36405714  0.42549621  0.02433833     0.12300
C204        C  0.33905379  0.40927427  0.99205848     0.23300
C205        C  0.30070655  0.44550208  0.52732402    -0.51600
C206        C  0.31291082  0.43418397  0.98561741     0.12400
C207        C  0.31105673  0.39559831  0.56590394    -0.51100
C208        C  0.32289960  0.38429473  0.02384585     0.13000
H209        H  0.36605625  0.44973750  0.59180783     0.17500
H210        H  0.34883133  0.40017887  0.95787848     0.03200
H211        H  0.28216320  0.46340067  0.02858239     0.17800
H212        H  0.29772470  0.38128396  0.59110190     0.17600
C213        C  0.06585822  0.31926538  0.92706309     0.89400
C214        C  0.10187489  0.31369892  0.93264108    -0.50900
C215        C  0.11406356  0.32460892  0.47465243     0.12300
C216        C  0.08905787  0.34082710  0.50693276     0.23300
C217        C  0.05070420  0.30460839  0.97167942    -0.51600
C218        C  0.06292035  0.31591202  0.51337865     0.12400
C219        C  0.06106084  0.35451387  0.93310765    -0.51100
C220        C  0.07289781  0.36580191  0.47514426     0.13000
H221        H  0.11605666  0.30037288  0.90719917     0.17500
H222        H  0.09883448  0.34992597  0.54111096     0.03200
H223        H  0.03217762  0.28668673  0.47041973     0.17800
H224        H  0.04773056  0.36883050  0.90791132     0.17600
C225        C  0.01978278  0.27095693  0.62098950    -0.08000
C226        C  0.50005094  0.25001140  0.59670233    -0.01800
C227        C  0.48030549  0.22907753  0.62098636    -0.07900
C228        C  0.48005556  0.22875759  0.67133798     0.13000
C229        C  0.50002539  0.25003431  0.69661942     0.00300
C230        C  0.02000699  0.27130012  0.67134057     0.12800
C231        C  0.03952568  0.29218817  0.69701262    -0.09700
C232        C  0.03942938  0.29227401  0.74675889    -0.09700
C233        C  0.01986739  0.27142088  0.77247903     0.12800
C234        C  0.50001410  0.25004486  0.74720884     0.00300
C235        C  0.46052352  0.20788180  0.69700827    -0.09900
C236        C  0.46059834  0.20781597  0.74675465    -0.09900
C237        C  0.48015080  0.22867812  0.77247649     0.13000
C238        C  0.48048088  0.22888433  0.82285252    -0.07900
C239        C  0.49999534  0.25006183  0.84718652    -0.01800
C240        C  0.01951937  0.27123123  0.82285559    -0.08000
H241        H  0.05499979  0.30865891  0.67874526     0.10300
H242        H  0.05484396  0.30881742  0.76498206     0.10300
H243        H  0.44505708  0.19140412  0.67873956     0.10400
H244        H  0.44517535  0.19128013  0.76497662     0.10400
H245        H  0.50006080  0.25000306  0.55792501     0.06900
H246        H  0.49998895  0.25006708  0.88595006     0.06900
C247        C  0.43414127  0.18085845  0.92705596     0.89400
C248        C  0.39812519  0.18642335  0.93263794    -0.50900
C249        C  0.38603847  0.17543610  0.47463988     0.12300
C250        C  0.41103254  0.15920513  0.50692195     0.23300
C251        C  0.44929704  0.19552268  0.97166683    -0.51600
C252        C  0.43718672  0.18410416  0.51336747     0.12400
C253        C  0.43894229  0.14561161  0.93310650    -0.51100
C254        C  0.42717594  0.13421736  0.47513530     0.13000
H255        H  0.38394263  0.19974926  0.90719872     0.17500
H256        H  0.40124872  0.15011533  0.54110035     0.03200
H257        H  0.46794937  0.21330700  0.47040700     0.17800
H258        H  0.45227808  0.13129421  0.90791534     0.17600
O259        O  0.47401298  0.03682386  0.53891995    -0.68900
O260        O  0.02603150  0.46319302  0.53892154    -0.69100
O261        O  0.03740979  0.02528630  0.53918351    -0.69000
O262        O  0.46263377  0.47473226  0.53919553    -0.69000
O263        O  0.46253625  0.47445424  0.96160180    -0.68900
O264        O  0.03755420  0.02572312  0.96162054    -0.68900
O265        O  0.02607768  0.46371350  0.96133866    -0.68900
O266        O  0.47401076  0.03646284  0.96135347    -0.69100
V267        V  0.50002212  0.50000849  0.53755670     1.35200
V268        V  0.00004494  0.50008871  0.96300108     1.35200
C269        C  0.46538963  0.04915967  0.99991165     0.80400
C270        C  0.03469037  0.45100722  0.99989199     0.80400
C271        C  0.05012921  0.03416976  0.00060635     0.80300
C272        C  0.44995868  0.46600005  0.00058129     0.80200
C273        C  0.43540166  0.10304606  0.49090851    -0.10400
C274        C  0.44723418  0.07778682  0.99851747    -0.11900
C275        C  0.44769637  0.19387822  0.88299320    -0.10400
C276        C  0.46128931  0.20810672  0.85181786    -0.11900
C277        C  0.44823221  0.19540723  0.55886535    -0.10400
C278        C  0.46096448  0.20868787  0.59170893    -0.11900
C279        C  0.05282686  0.42236860  0.99848846    -0.10400
C280        C  0.06465341  0.39697064  0.49091381    -0.11900
C281        C  0.05230023  0.30624108  0.88300244    -0.10400
C282        C  0.03870793  0.29201160  0.85182502    -0.11900
C283        C  0.05187341  0.30461298  0.55887581    -0.10400
C284        C  0.03913410  0.29133768  0.59171630    -0.11900
C285        C  0.39567222  0.43487298  0.00891230    -0.10400
C286        C  0.42114262  0.44750526  0.00178086    -0.11900
C287        C  0.28911863  0.45875672  0.90728294    -0.10400
C288        C  0.30185988  0.44548214  0.94012203    -0.11900
C289        C  0.30229856  0.44387537  0.61600045    -0.10600
C290        C  0.28870738  0.45810782  0.64717561    -0.11900
C291        C  0.07894796  0.05266025  0.00181992    -0.10400
C292        C  0.10441997  0.06528811  0.00895742    -0.11900
C293        C  0.21095346  0.04140893  0.90729973    -0.10400
C294        C  0.19822397  0.05469026  0.94014491    -0.11900
C295        C  0.19769999  0.05624020  0.61601179    -0.10400
C296        C  0.21129326  0.04201499  0.64718982    -0.11900
C297        C  0.18540302  0.14705180  0.00811399    -0.10400
C298        C  0.19722471  0.17238334  0.00051928    -0.11900
C299        C  0.17114848  0.30260279  0.49721315    -0.10400
C300        C  0.14567873  0.31523499  0.49007953    -0.11900
C301        C  0.35442211  0.18481541  0.49005894    -0.10400
C302        C  0.32895012  0.19744418  0.49719397    -0.11900
C303        C  0.31465680  0.35312661  0.00807199    -0.10400
C304        C  0.30282192  0.32779973  0.00048130    -0.11900
O305        O  0.22403666  0.71320978  0.46006882    -0.68900
O306        O  0.27605716  0.78683987  0.46009886    -0.69100
O307        O  0.28743592  0.72474700  0.45981052    -0.69000
O308        O  0.21266118  0.77530201  0.45981962    -0.69000
O309        O  0.21251018  0.77573377  0.03738801    -0.68900
O310        O  0.28752543  0.72446222  0.03739595    -0.68900
O311        O  0.27605399  0.78647252  0.03764770    -0.68900
O312        O  0.22398355  0.71372491  0.03766641    -0.69100
V313        V  0.25004805  0.75002407  0.46144790     1.35200
V314        V  0.25001837  0.75009859  0.03600205     1.35200
C315        C  0.21536688  0.70101828  0.99911376     0.80400
C316        C  0.28467168  0.79916883  0.99908885     0.80400
C317        C  0.30013142  0.71593507  0.49840387     0.80300
C318        C  0.19996322  0.78410686  0.49841636     0.80200
C319        C  0.18419423  0.56929209  0.07195847     0.89400
C320        C  0.14817873  0.56371765  0.06638097    -0.50900
C321        C  0.13599363  0.57462378  0.52435002     0.12300
C322        C  0.16099410  0.59084819  0.49206901     0.23300
C323        C  0.19935106  0.55463557  0.02734218    -0.51600
C324        C  0.18714367  0.56594448  0.48563348     0.12400
C325        C  0.18898467  0.60454105  0.06591350    -0.51100
C326        C  0.17714145  0.61583540  0.52385249     0.13000
H327        H  0.13399995  0.55038924  0.09182250     0.17500
H328        H  0.15121571  0.59993698  0.45788689     0.03200
H329        H  0.21789755  0.53674087  0.52860462     0.17800
H330        H  0.20231449  0.61886138  0.09110755     0.17600
C331        C  0.26957774  0.97891729  0.17614579    -0.08000
C332        C  0.25006236  0.00009524  0.15181782    -0.01800
C333        C  0.23054211  0.52126593  0.17615490    -0.07900
C334        C  0.23019874  0.52145676  0.22653127     0.13000
C335        C  0.25005300  0.00008051  0.25179556     0.00300
C336        C  0.26991254  0.97871224  0.22652200     0.12800
C337        C  0.28946561  0.95784961  0.25223842    -0.09700
C338        C  0.28954444  0.95791619  0.30198489    -0.09700
C339        C  0.27001608  0.97879343  0.32766069     0.12800
C340        C  0.25004584  0.00007083  0.30238497     0.00300
C341        C  0.21063996  0.54231097  0.25225679    -0.09900
C342        C  0.21054735  0.54222575  0.30200301    -0.09900
C343        C  0.23006704  0.52133736  0.32766949     0.13000
C344        C  0.23029472  0.52099436  0.37802051    -0.07900
C345        C  0.25002805  0.00004903  0.40230203    -0.01800
C346        C  0.26977001  0.97911387  0.37801233    -0.08000
H347        H  0.30488587  0.94131266  0.23401204     0.10300
H348        H  0.30501110  0.94143798  0.32024933     0.10300
H349        H  0.19522477  0.55885469  0.23403785     0.10400
H350        H  0.19507563  0.55869715  0.32027451     0.10400
H351        H  0.25006461  0.00009955  0.11305442     0.06900
H352        H  0.25002062  0.00004049  0.44107941     0.06900
C353        C  0.31590523  0.93088406  0.07193006     0.89400
C354        C  0.35192176  0.93644627  0.06634662    -0.50900
C355        C  0.36401539  0.92545412  0.52436596     0.12300
C356        C  0.33901694  0.90922763  0.49208474     0.23300
C357        C  0.30075000  0.94554609  0.02731918    -0.51600
C358        C  0.31287356  0.93413578  0.48562880     0.12400
C359        C  0.31110143  0.89563690  0.06588078    -0.51100
C360        C  0.32286240  0.88425124  0.52387668     0.13000
H361        H  0.36610631  0.94977139  0.09178628     0.17500
H362        H  0.34879941  0.90012840  0.45791026     0.03200
H363        H  0.28212086  0.96335812  0.52857689     0.17800
H364        H  0.29776714  0.88132142  0.09107465     0.17600
C365        C  0.06591160  0.81920893  0.42706574     0.89400
C366        C  0.10192939  0.81365466  0.43264628    -0.50900
C367        C  0.11401497  0.82465160  0.97464488     0.12300
C368        C  0.08901622  0.84087790  0.00692688     0.23300
C369        C  0.05076073  0.80454555  0.47167931    -0.51600
C370        C  0.06287011  0.81597115  0.01337746     0.12400
C371        C  0.06110055  0.85445542  0.43311175    -0.51100
C372        C  0.07286503  0.86585750  0.97513757     0.13000
H373        H  0.11611558  0.80033026  0.40720776     0.17500
H374        H  0.09879785  0.84997440  0.04110347     0.03200
H375        H  0.03211656  0.78675404  0.97042247     0.17800
H376        H  0.04776343  0.86876718  0.40791703     0.17600
C377        C  0.01975745  0.77099302  0.12099127    -0.08000
C378        C  0.50001042  0.75006228  0.09670183    -0.01800
C379        C  0.48027943  0.72911417  0.12098347    -0.07900
C380        C  0.48005766  0.72876478  0.17133437     0.13000
C381        C  0.50004071  0.75002731  0.19661886     0.00300
C382        C  0.02000955  0.77130694  0.17134310     0.12800
C383        C  0.03954263  0.79217972  0.19701909    -0.09700
C384        C  0.03946940  0.79224021  0.24676553    -0.09700
C385        C  0.01991763  0.77137553  0.27248178     0.12800
C386        C  0.50005407  0.75001098  0.24720832     0.00300
C387        C  0.46053999  0.70787370  0.19700068    -0.09900
C388        C  0.46063817  0.70778236  0.24674694    -0.09900
C389        C  0.48020101  0.72863275  0.27247272     0.13000
C390        C  0.48054928  0.72881842  0.32284934    -0.07900
C391        C  0.50007405  0.74998544  0.34718608    -0.01800
C392        C  0.01958756  0.77116553  0.32285782    -0.08000
H393        H  0.05500833  0.80865940  0.17875485     0.10300
H394        H  0.05489299  0.80877417  0.26499199     0.10300
H395        H  0.44506510  0.69140513  0.17872893     0.10400
H396        H  0.44522416  0.69123704  0.26496567     0.10400
H397        H  0.49999885  0.75007499  0.05792431     0.06900
H398        H  0.50007946  0.74997819  0.38594949     0.06900
C399        C  0.43419607  0.68080163  0.42705362     0.89400
C400        C  0.39818134  0.68638001  0.43263349    -0.50900
C401        C  0.38598845  0.67547740  0.97464657     0.12300
C402        C  0.41098996  0.65925567  0.00692736     0.23300
C403        C  0.44935576  0.69545869  0.47166730    -0.51600
C404        C  0.43713457  0.68416403  0.01336832     0.12400
C405        C  0.43898217  0.64555255  0.43310238    -0.51100
C406        C  0.42714336  0.63427325  0.97514181     0.13000
H407        H  0.38400361  0.69970803  0.40719111     0.17500
H408        H  0.40121134  0.65016315  0.04110741     0.03200
H409        H  0.46788559  0.71337588  0.97040398     0.17800
H410        H  0.45231059  0.63122999  0.40790956     0.17600
O411        O  0.47403170  0.53689756  0.03892760    -0.68900
O412        O  0.02604966  0.96326645  0.03891257    -0.69100
O413        O  0.03743011  0.52535905  0.03919814    -0.69000
O414        O  0.46265364  0.97480555  0.03917961    -0.69000
O415        O  0.46251032  0.97436935  0.46161783    -0.68900
O416        O  0.03752744  0.52563929  0.46160581    -0.68900
O417        O  0.02605326  0.96362904  0.46134754    -0.68900
O418        O  0.47398539  0.53637776  0.46134597    -0.69100
V419        V  0.50004172  0.00008264  0.03755603     1.35200
V420        V  0.00001932  0.00000364  0.46300177     1.35200
C421        C  0.46537018  0.54908191  0.49990145     0.80400
C422        C  0.03467187  0.95093002  0.49990349     0.80400
C423        C  0.05010393  0.53409410  0.50058643     0.80300
C424        C  0.44993430  0.96592323  0.50060248     0.80200
C425        C  0.43539261  0.60310948  0.99092258    -0.10400
C426        C  0.44722610  0.57771565  0.49850182    -0.11900
C427        C  0.44775838  0.69381669  0.38299077    -0.10400
C428        C  0.46135580  0.70804055  0.35181368    -0.11900
C429        C  0.44818558  0.69546341  0.05886375    -0.10400
C430        C  0.46092687  0.70873675  0.09170535    -0.11900
C431        C  0.05281976  0.92229797  0.49850512    -0.10400
C432        C  0.06464347  0.89703354  0.99089928    -0.11900
C433        C  0.05236083  0.80618008  0.38300496    -0.10400
C434        C  0.03877366  0.79194594  0.35182861    -0.11900
C435        C  0.05182869  0.80466823  0.05887694    -0.10400
C436        C  0.03909789  0.79138556  0.09171895    -0.11900
C437        C  0.39563630  0.93481783  0.50894882    -0.10400
C438        C  0.42111261  0.94743749  0.50181338    -0.11900
C439        C  0.28910881  0.95872092  0.40728435    -0.10400
C440        C  0.30183670  0.94543775  0.44012735    -0.11900
C441        C  0.30235278  0.94390744  0.11599414    -0.10600
C442        C  0.28876431  0.95813765  0.14717386    -0.11900
C443        C  0.07891655  0.55259427  0.50178859    -0.10400
C444        C  0.10438264  0.56523472  0.50892195    -0.11900
C445        C  0.21094272  0.54137252  0.40729893    -0.10400
C446        C  0.19819955  0.55464525  0.44013996    -0.11900
C447        C  0.19775540  0.55627296  0.11601800    -0.10400
C448        C  0.21135104  0.54204547  0.14719182    -0.11900
C449        C  0.18538963  0.64699843  0.50806665    -0.10400
C450        C  0.19723268  0.67232058  0.50047164    -0.11900
C451        C  0.17111099  0.80266437  0.99719500    -0.10400
C452        C  0.14563519  0.81528533  0.99006152    -0.11900
C453        C  0.35437691  0.68486362  0.99007582    -0.10400
C454        C  0.32891104  0.69750373  0.99721078    -0.11900
C455        C  0.31464277  0.85307375  0.50812002    -0.10400
C456        C  0.30282861  0.82773769  0.50053028    -0.11900
O457        O  0.22400728  0.71327452  0.96009242    -0.68900
O458        O  0.27602841  0.78690422  0.96007363    -0.69100
O459        O  0.28740394  0.72481078  0.95981820    -0.69000
O460        O  0.21262978  0.77536656  0.95981039    -0.69000
O461        O  0.21253644  0.77565079  0.53739745    -0.68900
O462        O  0.28755265  0.72438045  0.53738805    -0.68900
O463        O  0.27607778  0.78639040  0.53767276    -0.68900
O464        O  0.22400858  0.71364193  0.53764298    -0.69100
V465        V  0.25001743  0.75008957  0.96144710     1.35200
V466        V  0.25004425  0.75001561  0.53600284     1.35200
C467        C  0.21539014  0.70094683  0.49908235     0.80400
C468        C  0.28469379  0.79909812  0.49912184     0.80400
C469        C  0.30009942  0.71600470  0.99841462     0.80300
C470        C  0.19993232  0.78417789  0.99840410     0.80200
C471        C  0.18414489  0.56925434  0.57194549     0.89400
C472        C  0.14813006  0.56368239  0.56636112    -0.50900
C473        C  0.13603650  0.57466505  0.02437694     0.12300
C474        C  0.16103167  0.59089483  0.99209485     0.23300
C475        C  0.19930574  0.55459042  0.52733767    -0.51600
C476        C  0.18718238  0.56599342  0.98564454     0.12400
C477        C  0.18893996  0.60450165  0.56589047    -0.51100
C478        C  0.17717850  0.61587936  0.02388301     0.13000
H479        H  0.13394823  0.55035637  0.59180176     0.17500
H480        H  0.15124813  0.59998721  0.95791822     0.03200
H481        H  0.21794212  0.53678508  0.02859891     0.17800
H482        H  0.20227263  0.61882279  0.59108027     0.17600
C483        C  0.26952110  0.97888898  0.67614629    -0.08000
C484        C  0.25000058  0.00006193  0.65181761    -0.01800
C485        C  0.23048511  0.52123732  0.67615390    -0.07900
C486        C  0.23015147  0.52143831  0.72653017     0.13000
C487        C  0.25001149  0.00006788  0.75179526     0.00300
C488        C  0.26986547  0.97869398  0.72652256     0.12800
C489        C  0.28942415  0.95783697  0.75223986    -0.09700
C490        C  0.28951618  0.95791657  0.80198604    -0.09700
C491        C  0.26999614  0.97880180  0.82766079     0.12800
C492        C  0.25001805  0.00007169  0.80238464     0.00300
C493        C  0.21059832  0.54229828  0.75225475    -0.09900
C494        C  0.21051933  0.54222626  0.80200122    -0.09900
C495        C  0.23004732  0.52134593  0.82766869     0.13000
C496        C  0.23029252  0.52101930  0.87802011    -0.07900
C497        C  0.25003371  0.00008101  0.90230161    -0.01800
C498        C  0.26976734  0.97913843  0.87801199    -0.08000
H499        H  0.30483940  0.94129525  0.73401454     0.10300
H500        H  0.30498766  0.94144292  0.82025113     0.10300
H501        H  0.19517815  0.55883705  0.73403497     0.10400
H502        H  0.19505250  0.55870247  0.82027224     0.10400
H503        H  0.24999645  0.00005988  0.61305405     0.06900
H504        H  0.25004034  0.00008494  0.94107911     0.06900
C505        C  0.31585707  0.93084687  0.57194334     0.89400
C506        C  0.35187448  0.93641047  0.56636719    -0.50900
C507        C  0.36405709  0.92549625  0.02433834     0.12300
C508        C  0.33905377  0.90927431  0.99205846     0.23300
C509        C  0.30070654  0.94550207  0.52732399    -0.51600
C510        C  0.31291080  0.93418399  0.98561740     0.12400
C511        C  0.31105670  0.89559826  0.56590391    -0.51100
C512        C  0.32289957  0.88429477  0.02384583     0.13000
H513        H  0.36605627  0.94973743  0.59180790     0.17500
H514        H  0.34883132  0.90017894  0.95787846     0.03200
H515        H  0.28216312  0.96340070  0.02858235     0.17800
H516        H  0.29772464  0.88128396  0.59110178     0.17600
C517        C  0.06585823  0.81926534  0.92706309     0.89400
C518        C  0.10187490  0.81369893  0.93264108    -0.50900
C519        C  0.11406355  0.82460896  0.47465243     0.12300
C520        C  0.08905784  0.84082715  0.50693276     0.23300
C521        C  0.05070421  0.80460838  0.97167944    -0.51600
C522        C  0.06292031  0.81591207  0.51337865     0.12400
C523        C  0.06106080  0.85451382  0.93310760    -0.51100
C524        C  0.07289779  0.86580197  0.47514426     0.13000
H525        H  0.11605675  0.80037294  0.90719908     0.17500
H526        H  0.09883446  0.84992603  0.54111094     0.03200
H527        H  0.03217778  0.78668662  0.47041970     0.17800
H528        H  0.04773045  0.86883039  0.90791138     0.17600
C529        C  0.01978279  0.77095688  0.62098952    -0.08000
C530        C  0.50005089  0.75001133  0.59670232    -0.01800
C531        C  0.48030541  0.72907752  0.62098637    -0.07900
C532        C  0.48005559  0.72875754  0.67133798     0.13000
C533        C  0.50002540  0.75003425  0.69661941     0.00300
C534        C  0.02000697  0.77130011  0.67134059     0.12800
C535        C  0.03952572  0.79218815  0.69701261    -0.09700
C536        C  0.03942946  0.79227391  0.74675888    -0.09700
C537        C  0.01986748  0.77142078  0.77247901     0.12800
C538        C  0.50001415  0.75004474  0.74720884     0.00300
C539        C  0.46052359  0.70788172  0.69700827    -0.09900
C540        C  0.46059840  0.70781592  0.74675462    -0.09900
C541        C  0.48015083  0.72867801  0.77247648     0.13000
C542        C  0.48048081  0.72888425  0.82285250    -0.07900
C543        C  0.49999521  0.75006176  0.84718654    -0.01800
C544        C  0.01951941  0.77123116  0.82285556    -0.08000
H545        H  0.05499978  0.80865888  0.67874529     0.10300
H546        H  0.05484406  0.80881734  0.76498211     0.10300
H547        H  0.44505721  0.69140403  0.67873958     0.10400
H548        H  0.44517532  0.69128006  0.76497660     0.10400
H549        H  0.50006069  0.75000296  0.55792501     0.06900
H550        H  0.49998881  0.75006697  0.88595008     0.06900
C551        C  0.43414128  0.68085848  0.92705599     0.89400
C552        C  0.39812520  0.68642340  0.93263797    -0.50900
C553        C  0.38603847  0.67543603  0.47463987     0.12300
C554        C  0.41103254  0.65920508  0.50692193     0.23300
C555        C  0.44929706  0.69552267  0.97166688    -0.51600
C556        C  0.43718675  0.68410407  0.51336747     0.12400
C557        C  0.43894234  0.64561167  0.93310652    -0.51100
C558        C  0.42717597  0.63421732  0.47513529     0.13000
H559        H  0.38394267  0.69974929  0.90719877     0.17500
H560        H  0.40124869  0.65011529  0.54110036     0.03200
H561        H  0.46794945  0.71330685  0.47040699     0.17800
H562        H  0.45227818  0.63129430  0.90791528     0.17600
O563        O  0.47401294  0.53682385  0.53891996    -0.68900
O564        O  0.02603152  0.96319302  0.53892154    -0.69100
O565        O  0.03740987  0.52528627  0.53918351    -0.69000
O566        O  0.46263383  0.97473217  0.53919553    -0.69000
O567        O  0.46253623  0.97445415  0.96160182    -0.68900
O568        O  0.03755412  0.52572322  0.96162053    -0.68900
O569        O  0.02607779  0.96371350  0.96133868    -0.68900
O570        O  0.47401089  0.53646295  0.96135346    -0.69100
V571        V  0.50002213  0.00000846  0.53755670     1.35200
V572        V  0.00004499  0.00008866  0.96300108     1.35200
C573        C  0.46538968  0.54915972  0.99991166     0.80400
C574        C  0.03469040  0.95100723  0.99989203     0.80400
C575        C  0.05012921  0.53416979  0.00060633     0.80300
C576        C  0.44995870  0.96599999  0.00058134     0.80200
C577        C  0.43540173  0.60304605  0.49090850    -0.10400
C578        C  0.44723428  0.57778691  0.99851749    -0.11900
C579        C  0.44769630  0.69387817  0.88299318    -0.10400
C580        C  0.46128921  0.70810663  0.85181778    -0.11900
C581        C  0.44823223  0.69540715  0.55886534    -0.10400
C582        C  0.46096437  0.70868788  0.59170895    -0.11900
C583        C  0.05282684  0.92236857  0.99848853    -0.10400
C584        C  0.06465344  0.89697071  0.49091379    -0.11900
C585        C  0.05230022  0.80624099  0.88300249    -0.10400
C586        C  0.03870797  0.79201151  0.85182501    -0.11900
C587        C  0.05187337  0.80461293  0.55887577    -0.10400
C588        C  0.03913413  0.79133758  0.59171628    -0.11900
C589        C  0.39567220  0.93487295  0.00891235    -0.10400
C590        C  0.42114258  0.94750526  0.00178094    -0.11900
C591        C  0.28911868  0.95875674  0.90728291    -0.10400
C592        C  0.30185992  0.94548214  0.94012199    -0.11900
C593        C  0.30229857  0.94387532  0.61600049    -0.10600
C594        C  0.28870738  0.95810779  0.64717563    -0.11900
C595        C  0.07894796  0.55266028  0.00181989    -0.10400
C596        C  0.10441999  0.56528810  0.00895744    -0.11900
C597        C  0.21095352  0.54140903  0.90729970    -0.10400
C598        C  0.19822405  0.55469034  0.94014491    -0.11900
C599        C  0.19769996  0.55624009  0.61601177    -0.10400
C600        C  0.21129325  0.54201491  0.64718981    -0.11900
C601        C  0.18540296  0.64705188  0.00811398    -0.10400
C602        C  0.19722475  0.67238339  0.00051930    -0.11900
C603        C  0.17114843  0.80260275  0.49721321    -0.10400
C604        C  0.14567867  0.81523491  0.49007956    -0.11900
C605        C  0.35442216  0.68481550  0.49005895    -0.10400
C606        C  0.32895019  0.69744432  0.49719396    -0.11900
C607        C  0.31465688  0.85312661  0.00807201    -0.10400
C608        C  0.30282199  0.82779973  0.00048129    -0.11900
O609        O  0.72403675  0.21320979  0.46006881    -0.68900
O610        O  0.77605705  0.28683998  0.46009886    -0.69100
O611        O  0.78743601  0.22474710  0.45981052    -0.69000
O612        O  0.71266115  0.27530197  0.45981963    -0.69000
O613        O  0.71251024  0.27573379  0.03738801    -0.68900
O614        O  0.78752546  0.22446228  0.03739595    -0.68900
O615        O  0.77605402  0.28647252  0.03764770    -0.68900
O616        O  0.72398355  0.21372487  0.03766641    -0.69100
V617        V  0.75004807  0.25002411  0.46144790     1.35200
V618        V  0.75001839  0.25009859  0.03600205     1.35200
C619        C  0.71536685  0.20101825  0.99911376     0.80400
C620        C  0.78467172  0.29916882  0.99908884     0.80400
C621        C  0.80013144  0.21593505  0.49840386     0.80300
C622        C  0.69996319  0.28410682  0.49841637     0.80200
C623        C  0.68419420  0.06929205  0.07195845     0.89400
C624        C  0.64817870  0.06371757  0.06638097    -0.50900
C625        C  0.63599362  0.07462387  0.52435005     0.12300
C626        C  0.66099411  0.09084825  0.49206899     0.23300
C627        C  0.69935103  0.05463560  0.02734214    -0.51600
C628        C  0.68714363  0.06594447  0.48563348     0.12400
C629        C  0.68898463  0.10454102  0.06591355    -0.51100
C630        C  0.67714146  0.11583547  0.52385246     0.13000
H631        H  0.63399995  0.05038918  0.09182249     0.17500
H632        H  0.65121574  0.09993702  0.45788686     0.03200
H633        H  0.71789747  0.03674090  0.52860466     0.17800
H634        H  0.70231449  0.11886130  0.09110749     0.17600
C635        C  0.76957777  0.47891728  0.17614578    -0.08000
C636        C  0.75006241  0.50009526  0.15181781    -0.01800
C637        C  0.73054205  0.02126591  0.17615492    -0.07900
C638        C  0.73019871  0.02145677  0.22653127     0.13000
C639        C  0.75005304  0.50008050  0.25179555     0.00300
C640        C  0.76991260  0.47871225  0.22652199     0.12800
C641        C  0.78946560  0.45784956  0.25223841    -0.09700
C642        C  0.78954437  0.45791605  0.30198489    -0.09700
C643        C  0.77001605  0.47879335  0.32766069     0.12800
C644        C  0.75004585  0.50007079  0.30238498     0.00300
C645        C  0.71063997  0.04231103  0.25225679    -0.09900
C646        C  0.71054735  0.04222578  0.30200303    -0.09900
C647        C  0.73006710  0.02133743  0.32766949     0.13000
C648        C  0.73029478  0.02099441  0.37802052    -0.07900
C649        C  0.75002807  0.50004902  0.40230203    -0.01800
C650        C  0.76977001  0.47911382  0.37801232    -0.08000
H651        H  0.80488584  0.44131262  0.23401203     0.10300
H652        H  0.80501096  0.44143780  0.32024927     0.10300
H653        H  0.69522482  0.05885475  0.23403791     0.10400
H654        H  0.69507556  0.05869712  0.32027454     0.10400
H655        H  0.75006467  0.50009958  0.11305441     0.06900
H656        H  0.75002068  0.50004050  0.44107942     0.06900
C657        C  0.81590523  0.43088402  0.07193006     0.89400
C658        C  0.85192178  0.43644625  0.06634663    -0.50900
C659        C  0.86401537  0.42545414  0.52436598     0.12300
C660        C  0.83901696  0.40922767  0.49208473     0.23300
C661        C  0.80075003  0.44554612  0.02731923    -0.51600
C662        C  0.81287361  0.43413585  0.48562882     0.12400
C663        C  0.81110135  0.39563686  0.06588077    -0.51100
C664        C  0.82286238  0.38425128  0.52387667     0.13000
H665        H  0.86610628  0.44977140  0.09178610     0.17500
H666        H  0.84879946  0.40012847  0.45791026     0.03200
H667        H  0.78212079  0.46335809  0.52857692     0.17800
H668        H  0.79776700  0.38132140  0.09107448     0.17600
C669        C  0.56591162  0.31920891  0.42706573     0.89400
C670        C  0.60192941  0.31365469  0.43264626    -0.50900
C671        C  0.61401497  0.32465162  0.97464483     0.12300
C672        C  0.58901625  0.34087793  0.00692687     0.23300
C673        C  0.55076074  0.30454552  0.47167931    -0.51600
C674        C  0.56287016  0.31597114  0.01337747     0.12400
C675        C  0.56110049  0.35445537  0.43311176    -0.51100
C676        C  0.57286504  0.36585754  0.97513760     0.13000
H677        H  0.61611567  0.30033032  0.40720765     0.17500
H678        H  0.59879789  0.34997443  0.04110342     0.03200
H679        H  0.53211661  0.28675399  0.97042250     0.17800
H680        H  0.54776330  0.36876706  0.40791715     0.17600
C681        C  0.51975746  0.27099303  0.12099126    -0.08000
C682        C  0.00001049  0.25006225  0.09670183    -0.01800
C683        C  0.98027949  0.22911416  0.12098347    -0.07900
C684        C  0.98005769  0.22876480  0.17133436     0.13000
C685        C  0.00004074  0.25002730  0.19661887     0.00300
C686        C  0.52000956  0.27130693  0.17134310     0.12800
C687        C  0.53954268  0.29217965  0.19701911    -0.09700
C688        C  0.53946941  0.29224015  0.24676555    -0.09700
C689        C  0.51991764  0.27137549  0.27248179     0.12800
C690        C  0.00005414  0.25001092  0.24720833     0.00300
C691        C  0.96053997  0.20787378  0.19700068    -0.09900
C692        C  0.96063816  0.20778241  0.24674692    -0.09900
C693        C  0.98020107  0.22863270  0.27247273     0.13000
C694        C  0.98054934  0.22881835  0.32284935    -0.07900
C695        C  0.00007402  0.24998544  0.34718610    -0.01800
C696        C  0.51958757  0.27116552  0.32285782    -0.08000
H697        H  0.55500842  0.30865935  0.17875492     0.10300
H698        H  0.55489297  0.30877410  0.26499203     0.10300
H699        H  0.94506501  0.19140526  0.17872887     0.10400
H700        H  0.94522403  0.19123712  0.26496566     0.10400
H701        H  0.99999895  0.25007492  0.05792430     0.06900
H702        H  0.00007934  0.24997827  0.38594951     0.06900
C703        C  0.93419608  0.18080166  0.42705362     0.89400
C704        C  0.89818137  0.18638013  0.43263353    -0.50900
C705        C  0.88598842  0.17547736  0.97464658     0.12300
C706        C  0.91098996  0.15925565  0.00692738     0.23300
C707        C  0.94935578  0.19545873  0.47166730    -0.51600
C708        C  0.93713456  0.18416404  0.01336831     0.12400
C709        C  0.93898206  0.14555256  0.43310240    -0.51100
C710        C  0.92714337  0.13427322  0.97514184     0.13000
H711        H  0.88400365  0.19970815  0.40719113     0.17500
H712        H  0.90121137  0.15016315  0.04110748     0.03200
H713        H  0.96788544  0.21337599  0.97040392     0.17800
H714        H  0.95231043  0.13122995  0.40790952     0.17600
O715        O  0.97403173  0.03689760  0.03892759    -0.68900
O716        O  0.52604967  0.46326643  0.03891256    -0.69100
O717        O  0.53743009  0.02535911  0.03919814    -0.69000
O718        O  0.96265363  0.47480557  0.03917961    -0.69000
O719        O  0.96251033  0.47436933  0.46161783    -0.68900
O720        O  0.53752745  0.02563927  0.46160582    -0.68900
O721        O  0.52605331  0.46362907  0.46134754    -0.68900
O722        O  0.97398541  0.03637777  0.46134597    -0.69100
V723        V  0.00004171  0.50008262  0.03755603     1.35200
V724        V  0.50001935  0.50000364  0.46300177     1.35200
C725        C  0.96537021  0.04908194  0.49990145     0.80400
C726        C  0.53467189  0.45093004  0.49990350     0.80400
C727        C  0.55010394  0.03409406  0.50058645     0.80300
C728        C  0.94993429  0.46592327  0.50060250     0.80200
C729        C  0.93539249  0.10310940  0.99092257    -0.10400
C730        C  0.94722607  0.07771567  0.49850181    -0.11900
C731        C  0.94775842  0.19381663  0.38299076    -0.10400
C732        C  0.96135586  0.20804046  0.35181367    -0.11900
C733        C  0.94818559  0.19546348  0.05886371    -0.10400
C734        C  0.96092688  0.20873681  0.09170534    -0.11900
C735        C  0.55281971  0.42229792  0.49850512    -0.10400
C736        C  0.56464353  0.39703361  0.99089928    -0.11900
C737        C  0.55236084  0.30618012  0.38300491    -0.10400
C738        C  0.53877366  0.29194599  0.35182857    -0.11900
C739        C  0.55182873  0.30466825  0.05887696    -0.10400
C740        C  0.53909793  0.29138555  0.09171894    -0.11900
C741        C  0.89563625  0.43481790  0.50894882    -0.10400
C742        C  0.92111259  0.44743751  0.50181342    -0.11900
C743        C  0.78910883  0.45872089  0.40728433    -0.10400
C744        C  0.80183676  0.44543781  0.44012737    -0.11900
C745        C  0.80235279  0.44390737  0.11599417    -0.10600
C746        C  0.78876432  0.45813759  0.14717386    -0.11900
C747        C  0.57891661  0.05259417  0.50178860    -0.10400
C748        C  0.60438269  0.06523466  0.50892193    -0.11900
C749        C  0.71094269  0.04137247  0.40729896    -0.10400
C750        C  0.69819944  0.05464514  0.44013998    -0.11900
C751        C  0.69775542  0.05627292  0.11601795    -0.10400
C752        C  0.71135108  0.04204551  0.14719183    -0.11900
C753        C  0.68538965  0.14699851  0.50806665    -0.10400
C754        C  0.69723269  0.17232065  0.50047163    -0.11900
C755        C  0.67111096  0.30266429  0.99719500    -0.10400
C756        C  0.64563518  0.31528526  0.99006147    -0.11900
C757        C  0.85437692  0.18486370  0.99007586    -0.10400
C758        C  0.82891105  0.19750382  0.99721077    -0.11900
C759        C  0.81464270  0.35307380  0.50812002    -0.10400
C760        C  0.80282857  0.32773773  0.50053032    -0.11900
O761        O  0.72400731  0.21327445  0.96009242    -0.68900
O762        O  0.77602839  0.28690423  0.96007363    -0.69100
O763        O  0.78740399  0.22481086  0.95981819    -0.69000
O764        O  0.71262971  0.27536640  0.95981039    -0.69000
O765        O  0.71253643  0.27565076  0.53739745    -0.68900
O766        O  0.78755266  0.22438042  0.53738805    -0.68900
O767        O  0.77607776  0.28639043  0.53767276    -0.68900
O768        O  0.72400864  0.21364194  0.53764297    -0.69100
V769        V  0.75001743  0.25008955  0.96144710     1.35200
V770        V  0.75004427  0.25001560  0.53600284     1.35200
C771        C  0.71539020  0.20094686  0.49908234     0.80400
C772        C  0.78469373  0.29909819  0.49912185     0.80400
C773        C  0.80009946  0.21600479  0.99841461     0.80300
C774        C  0.69993231  0.28417783  0.99840410     0.80200
C775        C  0.68414489  0.06925442  0.57194550     0.89400
C776        C  0.64813008  0.06368248  0.56636112    -0.50900
C777        C  0.63603646  0.07466500  0.02437693     0.12300
C778        C  0.66103160  0.09089483  0.99209486     0.23300
C779        C  0.69930574  0.05459044  0.52733769    -0.51600
C780        C  0.68718235  0.06599345  0.98564452     0.12400
C781        C  0.68893992  0.10450175  0.56589049    -0.51100
C782        C  0.67717840  0.11587935  0.02388308     0.13000
H783        H  0.63394824  0.05035638  0.59180175     0.17500
H784        H  0.65124805  0.09998718  0.95791823     0.03200
H785        H  0.71794212  0.03678503  0.02859884     0.17800
H786        H  0.70227246  0.11882293  0.59108031     0.17600
C787        C  0.76952109  0.47888896  0.67614630    -0.08000
C788        C  0.75000057  0.50006187  0.65181762    -0.01800
C789        C  0.73048512  0.02123736  0.67615390    -0.07900
C790        C  0.73015150  0.02143837  0.72653017     0.13000
C791        C  0.75001149  0.50006783  0.75179527     0.00300
C792        C  0.76986550  0.47869396  0.72652257     0.12800
C793        C  0.78942419  0.45783700  0.75223988    -0.09700
C794        C  0.78951618  0.45791651  0.80198607    -0.09700
C795        C  0.76999607  0.47880174  0.82766079     0.12800
C796        C  0.75001800  0.50007160  0.80238465     0.00300
C797        C  0.71059839  0.04229835  0.75225477    -0.09900
C798        C  0.71051938  0.04222637  0.80200124    -0.09900
C799        C  0.73004738  0.02134600  0.82766869     0.13000
C800        C  0.73029249  0.02101927  0.87802012    -0.07900
C801        C  0.75003375  0.50008110  0.90230162    -0.01800
C802        C  0.76976734  0.47913845  0.87801200    -0.08000
H803        H  0.80483955  0.44129528  0.73401450     0.10300
H804        H  0.80498767  0.44144296  0.82025111     0.10300
H805        H  0.69517816  0.05883712  0.73403493     0.10400
H806        H  0.69505253  0.05870250  0.82027223     0.10400
H807        H  0.74999645  0.50005981  0.61305406     0.06900
H808        H  0.75004040  0.50008506  0.94107912     0.06900
C809        C  0.81585706  0.43084690  0.57194334     0.89400
C810        C  0.85187446  0.43641051  0.56636720    -0.50900
C811        C  0.86405710  0.42549621  0.02433832     0.12300
C812        C  0.83905374  0.40927427  0.99205847     0.23300
C813        C  0.80070652  0.44550208  0.52732400    -0.51600
C814        C  0.81291077  0.43418397  0.98561742     0.12400
C815        C  0.81105671  0.39559829  0.56590393    -0.51100
C816        C  0.82289954  0.38429474  0.02384584     0.13000
H817        H  0.86605621  0.44973754  0.59180789     0.17500
H818        H  0.84883125  0.40017886  0.95787847     0.03200
H819        H  0.78216325  0.46340079  0.02858242     0.17800
H820        H  0.79772466  0.38128398  0.59110180     0.17600
C821        C  0.56585819  0.31926539  0.92706312     0.89400
C822        C  0.60187485  0.31369894  0.93264107    -0.50900
C823        C  0.61406356  0.32460896  0.47465242     0.12300
C824        C  0.58905787  0.34082712  0.50693275     0.23300
C825        C  0.55070423  0.30460837  0.97167946    -0.51600
C826        C  0.56292036  0.31591202  0.51337864     0.12400
C827        C  0.56106079  0.35451388  0.93310765    -0.51100
C828        C  0.57289776  0.36580190  0.47514427     0.13000
H829        H  0.61605660  0.30037288  0.90719907     0.17500
H830        H  0.59883449  0.34992599  0.54111093     0.03200
H831        H  0.53217770  0.28668666  0.47041970     0.17800
H832        H  0.54773051  0.36883049  0.90791140     0.17600
C833        C  0.51978280  0.27095694  0.62098953    -0.08000
C834        C  0.00005088  0.25001141  0.59670231    -0.01800
C835        C  0.98030544  0.22907755  0.62098636    -0.07900
C836        C  0.98005561  0.22875756  0.67133798     0.13000
C837        C  0.00002539  0.25003430  0.69661941     0.00300
C838        C  0.52000703  0.27130012  0.67134059     0.12800
C839        C  0.53952578  0.29218815  0.69701260    -0.09700
C840        C  0.53942950  0.29227398  0.74675888    -0.09700
C841        C  0.51986750  0.27142084  0.77247901     0.12800
C842        C  0.00001407  0.25004486  0.74720884     0.00300
C843        C  0.96052363  0.20788176  0.69700827    -0.09900
C844        C  0.96059844  0.20781591  0.74675464    -0.09900
C845        C  0.98015081  0.22867810  0.77247649     0.13000
C846        C  0.98048081  0.22888433  0.82285252    -0.07900
C847        C  0.99999525  0.25006183  0.84718654    -0.01800
C848        C  0.51951948  0.27123120  0.82285556    -0.08000
H849        H  0.55499984  0.30865889  0.67874527     0.10300
H850        H  0.55484407  0.30881740  0.76498203     0.10300
H851        H  0.94505717  0.19140408  0.67873958     0.10400
H852        H  0.94517546  0.19128007  0.76497658     0.10400
H853        H  0.00006069  0.25000307  0.55792499     0.06900
H854        H  0.99998886  0.25006704  0.88595009     0.06900
C855        C  0.93414125  0.18085845  0.92705596     0.89400
C856        C  0.89812516  0.18642330  0.93263794    -0.50900
C857        C  0.88603850  0.17543612  0.47463988     0.12300
C858        C  0.91103253  0.15920513  0.50692194     0.23300
C859        C  0.94929698  0.19552269  0.97166684    -0.51600
C860        C  0.93718675  0.18410412  0.51336747     0.12400
C861        C  0.93894238  0.14561162  0.93310654    -0.51100
C862        C  0.92717586  0.13421733  0.47513529     0.13000
H863        H  0.88394261  0.19974922  0.90719873     0.17500
H864        H  0.90124868  0.15011536  0.54110034     0.03200
H865        H  0.96794944  0.21330693  0.47040699     0.17800
H866        H  0.95227819  0.13129424  0.90791536     0.17600
O867        O  0.97401296  0.03682385  0.53891996    -0.68900
O868        O  0.52603155  0.46319307  0.53892154    -0.69100
O869        O  0.53740983  0.02528627  0.53918352    -0.69000
O870        O  0.96263383  0.47473226  0.53919553    -0.69000
O871        O  0.96253622  0.47445426  0.96160181    -0.68900
O872        O  0.53755413  0.02572313  0.96162053    -0.68900
O873        O  0.52607770  0.46371349  0.96133867    -0.68900
O874        O  0.97401092  0.03646293  0.96135345    -0.69100
V875        V  0.00002216  0.50000849  0.53755670     1.35200
V876        V  0.50004495  0.50008869  0.96300108     1.35200
C877        C  0.96538971  0.04915973  0.99991163     0.80400
C878        C  0.53469040  0.45100724  0.99989201     0.80400
C879        C  0.55012922  0.03416975  0.00060631     0.80300
C880        C  0.94995870  0.46600004  0.00058132     0.80200
C881        C  0.93540162  0.10304605  0.49090852    -0.10400
C882        C  0.94723423  0.07778686  0.99851747    -0.11900
C883        C  0.94769631  0.19387823  0.88299319    -0.10400
C884        C  0.96128923  0.20810673  0.85181783    -0.11900
C885        C  0.94823215  0.19540724  0.55886536    -0.10400
C886        C  0.96096439  0.20868789  0.59170896    -0.11900
C887        C  0.55282692  0.42236864  0.99848848    -0.10400
C888        C  0.56465333  0.39697062  0.49091381    -0.11900
C889        C  0.55230019  0.30624110  0.88300248    -0.10400
C890        C  0.53870800  0.29201159  0.85182499    -0.11900
C891        C  0.55187339  0.30461300  0.55887579    -0.10400
C892        C  0.53913414  0.29133768  0.59171631    -0.11900
C893        C  0.89567221  0.43487297  0.00891233    -0.10400
C894        C  0.92114262  0.44750526  0.00178093    -0.11900
C895        C  0.78911865  0.45875675  0.90728292    -0.10400
C896        C  0.80185984  0.44548214  0.94012204    -0.11900
C897        C  0.80229861  0.44387539  0.61600047    -0.10600
C898        C  0.78870745  0.45810785  0.64717562    -0.11900
C899        C  0.57894793  0.05266027  0.00181985    -0.10400
C900        C  0.60441993  0.06528813  0.00895746    -0.11900
C901        C  0.71095348  0.04140895  0.90729974    -0.10400
C902        C  0.69822395  0.05469026  0.94014490    -0.11900
C903        C  0.69770000  0.05624020  0.61601179    -0.10400
C904        C  0.71129329  0.04201500  0.64718980    -0.11900
C905        C  0.68540298  0.14705182  0.00811399    -0.10400
C906        C  0.69722476  0.17238333  0.00051929    -0.11900
C907        C  0.67114844  0.30260276  0.49721321    -0.10400
C908        C  0.64567871  0.31523498  0.49007956    -0.11900
C909        C  0.85442216  0.18481544  0.49005894    -0.10400
C910        C  0.82895018  0.19744423  0.49719394    -0.11900
C911        C  0.81465689  0.35312658  0.00807200    -0.10400
C912        C  0.80282205  0.32779970  0.00048128    -0.11900
O913        O  0.72403676  0.71320976  0.46006882    -0.68900
O914        O  0.77605719  0.78683988  0.46009886    -0.69100
O915        O  0.78743599  0.72474704  0.45981051    -0.69000
O916        O  0.71266127  0.77530201  0.45981962    -0.69000
O917        O  0.71251020  0.77573379  0.03738800    -0.68900
O918        O  0.78752541  0.72446220  0.03739594    -0.68900
O919        O  0.77605391  0.78647254  0.03764770    -0.68900
O920        O  0.72398356  0.71372487  0.03766640    -0.69100
V921        V  0.75004812  0.75002407  0.46144790     1.35200
V922        V  0.75001836  0.75009858  0.03600203     1.35200
C923        C  0.71536683  0.70101829  0.99911376     0.80400
C924        C  0.78467163  0.79916884  0.99908885     0.80400
C925        C  0.80013141  0.71593504  0.49840388     0.80300
C926        C  0.69996329  0.78410687  0.49841636     0.80200
C927        C  0.68419425  0.56929210  0.07195845     0.89400
C928        C  0.64817875  0.56371766  0.06638099    -0.50900
C929        C  0.63599364  0.57462379  0.52435003     0.12300
C930        C  0.66099412  0.59084819  0.49206901     0.23300
C931        C  0.69935102  0.55463556  0.02734216    -0.51600
C932        C  0.68714368  0.56594449  0.48563347     0.12400
C933        C  0.68898472  0.60454106  0.06591351    -0.51100
C934        C  0.67714148  0.61583539  0.52385248     0.13000
H935        H  0.63399998  0.55038921  0.09182250     0.17500
H936        H  0.65121573  0.59993698  0.45788691     0.03200
H937        H  0.71789755  0.53674093  0.52860463     0.17800
H938        H  0.70231455  0.61886134  0.09110747     0.17600
C939        C  0.76957771  0.97891725  0.17614579    -0.08000
C940        C  0.75006233  0.00009521  0.15181782    -0.01800
C941        C  0.73054203  0.52126588  0.17615491    -0.07900
C942        C  0.73019872  0.52145673  0.22653127     0.13000
C943        C  0.75005300  0.00008051  0.25179556     0.00300
C944        C  0.76991254  0.97871224  0.22652200     0.12800
C945        C  0.78946565  0.95784964  0.25223842    -0.09700
C946        C  0.78954443  0.95791618  0.30198488    -0.09700
C947        C  0.77001609  0.97879343  0.32766069     0.12800
C948        C  0.75004586  0.00007085  0.30238498     0.00300
C949        C  0.71064002  0.54231101  0.25225681    -0.09900
C950        C  0.71054746  0.54222577  0.30200302    -0.09900
C951        C  0.73006711  0.52133738  0.32766950     0.13000
C952        C  0.73029476  0.52099435  0.37802052    -0.07900
C953        C  0.75002801  0.00004900  0.40230204    -0.01800
C954        C  0.76977000  0.97911385  0.37801233    -0.08000
H955        H  0.80488593  0.94131274  0.23401205     0.10300
H956        H  0.80501106  0.94143791  0.32024933     0.10300
H957        H  0.69522485  0.55885475  0.23403790     0.10400
H958        H  0.69507569  0.55869717  0.32027457     0.10400
H959        H  0.75006457  0.00009950  0.11305442     0.06900
H960        H  0.75002054  0.00004042  0.44107942     0.06900
C961        C  0.81590525  0.93088406  0.07193006     0.89400
C962        C  0.85192181  0.93644627  0.06634663    -0.50900
C963        C  0.86401536  0.92545412  0.52436598     0.12300
C964        C  0.83901694  0.90922762  0.49208473     0.23300
C965        C  0.80075001  0.94554609  0.02731920    -0.51600
C966        C  0.81287358  0.93413577  0.48562879     0.12400
C967        C  0.81110142  0.89563690  0.06588079    -0.51100
C968        C  0.82286238  0.88425124  0.52387667     0.13000
H969        H  0.86610638  0.94977137  0.09178620     0.17500
H970        H  0.84879944  0.90012840  0.45791029     0.03200
H971        H  0.78212090  0.96335818  0.52857689     0.17800
H972        H  0.79776706  0.88132147  0.09107451     0.17600
C973        C  0.56591157  0.81920894  0.42706577     0.89400
C974        C  0.60192937  0.81365465  0.43264629    -0.50900
C975        C  0.61401496  0.82465158  0.97464488     0.12300
C976        C  0.58901622  0.84087789  0.00692690     0.23300
C977        C  0.55076070  0.80454556  0.47167933    -0.51600
C978        C  0.56287007  0.81597116  0.01337746     0.12400
C979        C  0.56110053  0.85445543  0.43311173    -0.51100
C980        C  0.57286506  0.86585750  0.97513758     0.13000
H981        H  0.61611555  0.80033025  0.40720776     0.17500
H982        H  0.59879789  0.84997437  0.04110344     0.03200
H983        H  0.53211648  0.78675410  0.97042246     0.17800
H984        H  0.54776341  0.86876716  0.40791708     0.17600
C985        C  0.51975739  0.77099303  0.12099128    -0.08000
C986        C  0.00001041  0.75006232  0.09670183    -0.01800
C987        C  0.98027947  0.72911416  0.12098348    -0.07900
C988        C  0.98005772  0.72876475  0.17133437     0.13000
C989        C  0.00004076  0.75002729  0.19661885     0.00300
C990        C  0.52000947  0.77130698  0.17134311     0.12800
C991        C  0.53954257  0.79217973  0.19701907    -0.09700
C992        C  0.53946944  0.79224022  0.24676552    -0.09700
C993        C  0.51991766  0.77137552  0.27248177     0.12800
C994        C  0.00005405  0.75001100  0.24720831     0.00300
C995        C  0.96053999  0.70787371  0.19700067    -0.09900
C996        C  0.96063820  0.70778235  0.24674692    -0.09900
C997        C  0.98020097  0.72863277  0.27247271     0.13000
C998        C  0.98054924  0.72881845  0.32284932    -0.07900
C999        C  0.00007396  0.74998547  0.34718608    -0.01800
C1000       C  0.51958764  0.77116550  0.32285780    -0.08000
H1001       H  0.55500825  0.80865944  0.17875480     0.10300
H1002       H  0.55489304  0.80877411  0.26499189     0.10300
H1003       H  0.94506506  0.69140522  0.17872891     0.10400
H1004       H  0.94522417  0.69123698  0.26496567     0.10400
H1005       H  0.99999876  0.75007511  0.05792431     0.06900
H1006       H  0.00007937  0.74997819  0.38594948     0.06900
C1007       C  0.93419607  0.68080163  0.42705363     0.89400
C1008       C  0.89818132  0.68638003  0.43263347    -0.50900
C1009       C  0.88598845  0.67547743  0.97464659     0.12300
C1010       C  0.91098995  0.65925568  0.00692738     0.23300
C1011       C  0.94935573  0.69545871  0.47166732    -0.51600
C1012       C  0.93713460  0.68416400  0.01336831     0.12400
C1013       C  0.93898214  0.64555255  0.43310240    -0.51100
C1014       C  0.92714328  0.63427324  0.97514180     0.13000
H1015       H  0.88400363  0.69970801  0.40719112     0.17500
H1016       H  0.90121133  0.65016317  0.04110744     0.03200
H1017       H  0.96788554  0.71337592  0.97040393     0.17800
H1018       H  0.95231057  0.63122995  0.40790954     0.17600
O1019       O  0.97403177  0.53689758  0.03892761    -0.68900
O1020       O  0.52604975  0.96326647  0.03891257    -0.69100
O1021       O  0.53743003  0.52535908  0.03919815    -0.69000
O1022       O  0.96265357  0.97480558  0.03917961    -0.69000
O1023       O  0.96251029  0.97436931  0.46161784    -0.68900
O1024       O  0.53752744  0.52563927  0.46160581    -0.68900
O1025       O  0.52605333  0.96362906  0.46134754    -0.68900
O1026       O  0.97398544  0.53637777  0.46134597    -0.69100
V1027       V  0.00004165  0.00008264  0.03755603     1.35200
V1028       V  0.50001938  0.00000365  0.46300176     1.35200
C1029       C  0.96537020  0.54908191  0.49990145     0.80400
C1030       C  0.53467187  0.95093001  0.49990351     0.80400
C1031       C  0.55010392  0.53409410  0.50058644     0.80300
C1032       C  0.94993426  0.96592323  0.50060249     0.80200
C1033       C  0.93539251  0.60310946  0.99092258    -0.10400
C1034       C  0.94722603  0.57771561  0.49850182    -0.11900
C1035       C  0.94775846  0.69381666  0.38299081    -0.10400
C1036       C  0.96135586  0.70804051  0.35181369    -0.11900
C1037       C  0.94818565  0.69546340  0.05886373    -0.10400
C1038       C  0.96092687  0.70873677  0.09170537    -0.11900
C1039       C  0.55281979  0.92229798  0.49850516    -0.10400
C1040       C  0.56464351  0.89703356  0.99089928    -0.11900
C1041       C  0.55236081  0.80618009  0.38300498    -0.10400
C1042       C  0.53877373  0.79194593  0.35182858    -0.11900
C1043       C  0.55182861  0.80466824  0.05887694    -0.10400
C1044       C  0.53909780  0.79138558  0.09171895    -0.11900
C1045       C  0.89563624  0.93481785  0.50894881    -0.10400
C1046       C  0.92111254  0.94743752  0.50181336    -0.11900
C1047       C  0.78910888  0.95872095  0.40728434    -0.10400
C1048       C  0.80183679  0.94543777  0.44012732    -0.11900
C1049       C  0.80235278  0.94390745  0.11599413    -0.10600
C1050       C  0.78876434  0.95813767  0.14717385    -0.11900
C1051       C  0.57891657  0.55259423  0.50178862    -0.10400
C1052       C  0.60438267  0.56523469  0.50892192    -0.11900
C1053       C  0.71094276  0.54137252  0.40729895    -0.10400
C1054       C  0.69819955  0.55464524  0.44013995    -0.11900
C1055       C  0.69775543  0.55627297  0.11601797    -0.10400
C1056       C  0.71135099  0.54204546  0.14719184    -0.11900
C1057       C  0.68538970  0.64699842  0.50806664    -0.10400
C1058       C  0.69723264  0.67232061  0.50047161    -0.11900
C1059       C  0.67111103  0.80266440  0.99719503    -0.10400
C1060       C  0.64563521  0.81528530  0.99006151    -0.11900
C1061       C  0.85437693  0.68486364  0.99007586    -0.10400
C1062       C  0.82891105  0.69750373  0.99721082    -0.11900
C1063       C  0.81464273  0.85307376  0.50812001    -0.10400
C1064       C  0.80282868  0.82773766  0.50053027    -0.11900
O1065       O  0.72400720  0.71327455  0.96009241    -0.68900
O1066       O  0.77602843  0.78690418  0.96007362    -0.69100
O1067       O  0.78740396  0.72481080  0.95981819    -0.69000
O1068       O  0.71262976  0.77536654  0.95981038    -0.69000
O1069       O  0.71253652  0.77565082  0.53739744    -0.68900
O1070       O  0.78755263  0.72438041  0.53738805    -0.68900
O1071       O  0.77607782  0.78639040  0.53767276    -0.68900
O1072       O  0.72400853  0.71364197  0.53764297    -0.69100
V1073       V  0.75001742  0.75008956  0.96144708     1.35200
V1074       V  0.75004428  0.75001561  0.53600284     1.35200
C1075       C  0.71539012  0.70094686  0.49908234     0.80400
C1076       C  0.78469384  0.79909811  0.49912185     0.80400
C1077       C  0.80009943  0.71600471  0.99841462     0.80300
C1078       C  0.69993235  0.78417792  0.99840410     0.80200
C1079       C  0.68414489  0.56925434  0.57194550     0.89400
C1080       C  0.64813005  0.56368237  0.56636114    -0.50900
C1081       C  0.63603649  0.57466506  0.02437696     0.12300
C1082       C  0.66103165  0.59089484  0.99209488     0.23300
C1083       C  0.69930578  0.55459043  0.52733768    -0.51600
C1084       C  0.68718233  0.56599341  0.98564453     0.12400
C1085       C  0.68893993  0.60450164  0.56589051    -0.51100
C1086       C  0.67717851  0.61587936  0.02388302     0.13000
H1087       H  0.63394819  0.55035637  0.59180168     0.17500
H1088       H  0.65124813  0.59998725  0.95791821     0.03200
H1089       H  0.71794211  0.53678503  0.02859888     0.17800
H1090       H  0.70227255  0.61882279  0.59108035     0.17600
C1091       C  0.76952116  0.97888902  0.67614631    -0.08000
C1092       C  0.75000063  0.00006195  0.65181763    -0.01800
C1093       C  0.73048515  0.52123734  0.67615391    -0.07900
C1094       C  0.73015156  0.52143836  0.72653017     0.13000
C1095       C  0.75001150  0.00006786  0.75179525     0.00300
C1096       C  0.76986554  0.97869400  0.72652258     0.12800
C1097       C  0.78942425  0.95783701  0.75223987    -0.09700
C1098       C  0.78951625  0.95791656  0.80198607    -0.09700
C1099       C  0.76999616  0.97880181  0.82766078     0.12800
C1100       C  0.75001805  0.00007167  0.80238463     0.00300
C1101       C  0.71059840  0.54229828  0.75225476    -0.09900
C1102       C  0.71051933  0.54222625  0.80200121    -0.09900
C1103       C  0.73004734  0.52134595  0.82766870     0.13000
C1104       C  0.73029254  0.52101934  0.87802012    -0.07900
C1105       C  0.75003368  0.00008100  0.90230160    -0.01800
C1106       C  0.76976734  0.97913844  0.87801199    -0.08000
H1107       H  0.80483954  0.94129531  0.73401455     0.10300
H1108       H  0.80498770  0.94144297  0.82025113     0.10300
H1109       H  0.69517819  0.55883707  0.73403492     0.10400
H1110       H  0.69505244  0.55870238  0.82027220     0.10400
H1111       H  0.74999653  0.00005990  0.61305407     0.06900
H1112       H  0.75004030  0.00008494  0.94107910     0.06900
C1113       C  0.81585706  0.93084687  0.57194335     0.89400
C1114       C  0.85187447  0.93641048  0.56636722    -0.50900
C1115       C  0.86405713  0.92549624  0.02433833     0.12300
C1116       C  0.83905379  0.90927431  0.99205847     0.23300
C1117       C  0.80070658  0.94550205  0.52732398    -0.51600
C1118       C  0.81291082  0.93418400  0.98561740     0.12400
C1119       C  0.81105674  0.89559827  0.56590391    -0.51100
C1120       C  0.82289959  0.88429477  0.02384585     0.13000
H1121       H  0.86605626  0.94973747  0.59180791     0.17500
H1122       H  0.84883133  0.90017893  0.95787846     0.03200
H1123       H  0.78216308  0.96340062  0.02858237     0.17800
H1124       H  0.79772468  0.88128393  0.59110185     0.17600
C1125       C  0.56585822  0.81926534  0.92706308     0.89400
C1126       C  0.60187488  0.81369890  0.93264110    -0.50900
C1127       C  0.61406355  0.82460895  0.47465243     0.12300
C1128       C  0.58905785  0.84082715  0.50693275     0.23300
C1129       C  0.55070416  0.80460840  0.97167944    -0.51600
C1130       C  0.56292033  0.81591206  0.51337866     0.12400
C1131       C  0.56106083  0.85451382  0.93310762    -0.51100
C1132       C  0.57289780  0.86580197  0.47514425     0.13000
H1133       H  0.61605671  0.80037290  0.90719909     0.17500
H1134       H  0.59883447  0.84992604  0.54111093     0.03200
H1135       H  0.53217774  0.78668667  0.47041973     0.17800
H1136       H  0.54773051  0.86883044  0.90791130     0.17600
C1137       C  0.51978278  0.77095687  0.62098950    -0.08000
C1138       C  0.00005095  0.75001131  0.59670234    -0.01800
C1139       C  0.98030547  0.72907748  0.62098636    -0.07900
C1140       C  0.98005554  0.72875756  0.67133798     0.13000
C1141       C  0.00002535  0.75003428  0.69661942     0.00300
C1142       C  0.52000696  0.77130011  0.67134057     0.12800
C1143       C  0.53952566  0.79218819  0.69701261    -0.09700
C1144       C  0.53942939  0.79227393  0.74675888    -0.09700
C1145       C  0.51986744  0.77142079  0.77247903     0.12800
C1146       C  0.00001410  0.75004478  0.74720883     0.00300
C1147       C  0.96052351  0.70788175  0.69700826    -0.09900
C1148       C  0.96059832  0.70781596  0.74675463    -0.09900
C1149       C  0.98015079  0.72867804  0.77247648     0.13000
C1150       C  0.98048089  0.72888422  0.82285251    -0.07900
C1151       C  0.99999531  0.75006174  0.84718652    -0.01800
C1152       C  0.51951933  0.77123118  0.82285560    -0.08000
H1153       H  0.55499972  0.80865892  0.67874530     0.10300
H1154       H  0.55484402  0.80881738  0.76498216     0.10300
H1155       H  0.94505714  0.69140404  0.67873955     0.10400
H1156       H  0.94517526  0.69128008  0.76497663     0.10400
H1157       H  0.00006079  0.75000292  0.55792501     0.06900
H1158       H  0.99998893  0.75006698  0.88595006     0.06900
C1159       C  0.93414126  0.68085848  0.92705597     0.89400
C1160       C  0.89812518  0.68642342  0.93263795    -0.50900
C1161       C  0.88603845  0.67543605  0.47463988     0.12300
C1162       C  0.91103251  0.65920508  0.50692194     0.23300
C1163       C  0.94929703  0.69552266  0.97166686    -0.51600
C1164       C  0.93718672  0.68410408  0.51336749     0.12400
C1165       C  0.93894226  0.64561166  0.93310651    -0.51100
C1166       C  0.92717593  0.63421731  0.47513528     0.13000
H1167       H  0.88394263  0.69974929  0.90719875     0.17500
H1168       H  0.90124869  0.65011529  0.54110039     0.03200
H1169       H  0.96794940  0.71330690  0.47040703     0.17800
H1170       H  0.95227808  0.63129428  0.90791527     0.17600
O1171       O  0.97401302  0.53682387  0.53891996    -0.68900
O1172       O  0.52603145  0.96319299  0.53892154    -0.69100
O1173       O  0.53740981  0.52528632  0.53918351    -0.69000
O1174       O  0.96263380  0.97473217  0.53919554    -0.69000
O1175       O  0.96253629  0.97445415  0.96160181    -0.68900
O1176       O  0.53755416  0.52572319  0.96162054    -0.68900
O1177       O  0.52607771  0.96371347  0.96133867    -0.68900
O1178       O  0.97401088  0.53646297  0.96135347    -0.69100
V1179       V  0.00002211  0.00000846  0.53755671     1.35200
V1180       V  0.50004493  0.00008864  0.96300109     1.35200
C1181       C  0.96538968  0.54915973  0.99991167     0.80400
C1182       C  0.53469036  0.95100720  0.99989201     0.80400
C1183       C  0.55012918  0.53416980  0.00060636     0.80300
C1184       C  0.94995869  0.96600000  0.00058130     0.80200
C1185       C  0.93540164  0.60304603  0.49090850    -0.10400
C1186       C  0.94723421  0.57778688  0.99851750    -0.11900
C1187       C  0.94769636  0.69387816  0.88299319    -0.10400
C1188       C  0.96128933  0.70810661  0.85181783    -0.11900
C1189       C  0.94823220  0.69540717  0.55886535    -0.10400
C1190       C  0.96096444  0.70868786  0.59170892    -0.11900
C1191       C  0.55282681  0.92236855  0.99848848    -0.10400
C1192       C  0.56465343  0.89697070  0.49091379    -0.11900
C1193       C  0.55230023  0.80624098  0.88300247    -0.10400
C1194       C  0.53870792  0.79201152  0.85182503    -0.11900
C1195       C  0.55187342  0.80461291  0.55887579    -0.10400
C1196       C  0.53913412  0.79133758  0.59171626    -0.11900
C1197       C  0.89567221  0.93487295  0.00891231    -0.10400
C1198       C  0.92114260  0.94750525  0.00178087    -0.11900
C1199       C  0.78911863  0.95875673  0.90728293    -0.10400
C1200       C  0.80185986  0.94548212  0.94012202    -0.11900
C1201       C  0.80229853  0.94387530  0.61600047    -0.10600
C1202       C  0.78870735  0.95810776  0.64717562    -0.11900
C1203       C  0.57894794  0.55266030  0.00181996    -0.10400
C1204       C  0.60442000  0.56528807  0.00895745    -0.11900
C1205       C  0.71095347  0.54140902  0.90729969    -0.10400
C1206       C  0.69822397  0.55469031  0.94014489    -0.11900
C1207       C  0.69769998  0.55624009  0.61601177    -0.10400
C1208       C  0.71129324  0.54201491  0.64718982    -0.11900
C1209       C  0.68540300  0.64705186  0.00811399    -0.10400
C1210       C  0.69722471  0.67238340  0.00051931    -0.11900
C1211       C  0.67114846  0.80260272  0.49721319    -0.10400
C1212       C  0.64567870  0.81523491  0.49007955    -0.11900
C1213       C  0.85442213  0.68481548  0.49005895    -0.10400
C1214       C  0.82895016  0.69744428  0.49719400    -0.11900
C1215       C  0.81465681  0.85312663  0.00807201    -0.10400
C1216       C  0.80282189  0.82779976  0.00048131    -0.11900
loop_ 
_geom_bond_atom_site_label_1 
_geom_bond_atom_site_label_2 
_geom_bond_distance 
_geom_bond_site_symmetry_2 
_ccdc_geom_bond_type 
O1            V9   1.910       .  S
O1          C163   1.265       .  A
O2            V9   1.910       .  S
O2          C164   1.265       .  A
O3            V9   1.896       .  S
O3           C13   1.262       .  A
O4            V9   1.896       .  S
O4           C14   1.262       .  A
O5           V10   1.908       .  S
O5          C166   1.265   1_554  A
O6           V10   1.908       .  S
O6          C165   1.265   1_554  A
O7           V10   1.895       .  S
O7           C12   1.262   1_554  A
O8           V10   1.895       .  S
O8           C11   1.261   1_554  A
V9          V162   2.090       .  T
V10         V161   2.090   1_554  T
C11         O153   1.265       .  A
C11         C298   1.438   1_556  S
C12         O154   1.265       .  A
C12         C304   1.438   1_556  S
C13         O158   1.265       .  A
C13         C302   1.437       .  S
C14         O157   1.265       .  A
C14         C299   1.437       .  S
C15          C16   1.527       .  S
C15          C21   1.528       .  S
C15          C19   1.535       .  S
C15         C143   1.468       .  S
C16          H23   1.087       .  S
C16         C169   1.364       .  D
C17          C18   1.544       .  S
C17         C168   1.364       .  D
C17         C140   1.443       .  S
C18          C22   1.544       .  S
C18          C20   1.533       .  S
C18          H24   1.111       .  S
C19         H177   1.087       .  S
C19         C172   1.363   1_554  D
C20         C171   1.363       .  D
C20         C142   1.439       .  S
C21          H26   1.087       .  S
C21         C174   1.366       .  D
C22         C173   1.366       .  D
C22         C145   1.444       .  S
H25         C171   1.087       .  S
C27         C138   1.444       .  S
C27          C28   1.394       .  A
C27          C32   1.412       .  A
C28         C333   1.394       .  A
C28          H47   1.087       .  S
C29         C144   1.444       .  S
C29          C30   1.412       .  A
C29         C332   1.394       .  A
C30          C37   1.406       .  A
C30         C335   1.421       .  A
C31          C32   1.421       .  A
C31          C36   1.418       .  A
C31         C334   1.421       .  A
C32          C33   1.406       .  A
C33          C34   1.395       .  A
C33          H43   1.083       .  S
C34          C35   1.405       .  A
C34          H44   1.083       .  S
C35          C36   1.421       .  A
C35          C42   1.412       .  A
C36         C343   1.421       .  A
C37          C38   1.395       .  A
C37          H45   1.083       .  S
C38          C39   1.405       .  A
C38          H46   1.083       .  S
C39          C40   1.412       .  A
C39         C340   1.421       .  A
C40         C141   1.443       .  S
C40         C345   1.393       .  A
C41          C42   1.393       .  A
C41         C344   1.393       .  A
C41          H48   1.087       .  S
C42         C135   1.443       .  S
C49          C50   1.527       .  S
C49          C55   1.528       .  S
C49          C53   1.535       .  S
C49         C137   1.468       .  S
C50          H57   1.087       .  S
C50         C203   1.364       .  D
C51          C52   1.544       .  S
C51         C202   1.364       .  D
C51         C133   1.443       .  S
C52          C56   1.544       .  S
C52          C54   1.533       .  S
C52          H58   1.111       .  S
C53         H211   1.087       .  S
C53         C206   1.363   1_554  D
C54         C205   1.363       .  D
C54         C136   1.439       .  S
C55          H60   1.087       .  S
C55         C208   1.366       .  D
C56         C207   1.366       .  D
C56         C151   1.444       .  S
H59         C205   1.087       .  S
C61          C62   1.527       .  S
C61          C67   1.528       .  S
C61          C65   1.535       .  S
C61         C129   1.468       .  S
C62          H69   1.087       .  S
C62         C215   1.364       .  D
C63          C64   1.544   1_556  S
C63         C214   1.364       .  D
C63         C148   1.443       .  S
C64          C68   1.544   1_554  S
C64          C66   1.533       .  S
C64          H70   1.111       .  S
C65         H223   1.087       .  S
C65         C218   1.363       .  D
C66         C217   1.363   1_554  D
C66         C131   1.439       .  S
C67          H72   1.087       .  S
C67         C220   1.366       .  D
C68         C219   1.366       .  D
C68         C128   1.444       .  S
H71         C217   1.087       .  S
C73         C132   1.443       .  S
C73          C78   1.412       .  A
C73         C682   1.393       .  A
C74          C75   1.393       .  A
C74         C681   1.393       .  A
C74          H93   1.087       .  S
C75         C126   1.443       .  S
C75          C76   1.412       .  A
C76          C77   1.421       .  A
C76          C83   1.405       .  A
C77          C82   1.418       .  A
C77         C686   1.421       .  A
C78          C79   1.405       .  A
C78         C685   1.421       .  A
C79          C80   1.395       .  A
C79          H89   1.083       .  S
C80          C81   1.406       .  A
C80          H90   1.083       .  S
C81          C88   1.412       .  A
C81         C690   1.421       .  A
C82          C85   1.421       .  A
C82         C689   1.421       .  A
C83          C84   1.395       .  A
C83          H91   1.083       .  S
C84          C85   1.406       .  A
C84          H92   1.083       .  S
C85          C86   1.412       .  A
C86         C124   1.444       .  S
C86          C87   1.394       .  A
C87         C696   1.394       .  A
C87          H94   1.087       .  S
C88         C130   1.444       .  S
C88         C695   1.394       .  A
C95          C96   1.527       .  S
C95         C101   1.528       .  S
C95          C99   1.535       .  S
C95         C123   1.468       .  S
C96         H103   1.087       .  S
C96         C249   1.364       .  D
C97          C98   1.544   1_556  S
C97         C248   1.364       .  D
C97         C149   1.443       .  S
C98         C102   1.544   1_554  S
C98         C100   1.533       .  S
C98         H104   1.111       .  S
C99         H257   1.087       .  S
C99         C252   1.363       .  D
C100        C251   1.363   1_554  D
C100        C125   1.439       .  S
C101        H106   1.087       .  S
C101        C254   1.366       .  D
C102        C253   1.366       .  D
C102        C121   1.444       .  S
H105        C251   1.087       .  S
O107        V419   1.910       .  S
O107        C269   1.265   1_554  A
O108        V723   1.910       .  S
O108        C270   1.265   1_554  A
O109       V1027   1.896       .  S
O109        C271   1.262       .  A
O110        V115   1.896       .  S
O110        C272   1.262       .  A
O111        V724   1.908       .  S
O111        C120   1.265       .  A
O112        V420   1.908       .  S
O112        C119   1.265       .  A
O113        V116   1.895       .  S
O113        C118   1.262       .  A
O114       V1028   1.895       .  S
O114        C117   1.261       .  A
V115        O411   1.910       .  S
V115        O716   1.910       .  S
V115       O1021   1.896       .  S
V115        V876   2.090   1_554  T
V116        O719   1.908   1_455  S
V116        O416   1.908       .  S
V116       O1026   1.895   1_455  S
V116        V875   2.090       .  T
C117        O259   1.265       .  A
C117        C122   1.438       .  S
C118        O260   1.265       .  A
C118        C127   1.438       .  S
C119        O261   1.262       .  A
C119        C139   1.437       .  S
C120        O262   1.262       .  A
C120        C134   1.437       .  S
C121        C274   1.208       .  T
C122        C273   1.208       .  T
C123        C124   1.206       .  T
C125        C126   1.204       .  T
C127        C280   1.208       .  T
C128        C279   1.208       .  T
C129        C130   1.206       .  T
C131        C132   1.204       .  T
C133        C134   1.207       .  T
C135        C136   1.204       .  T
C137        C138   1.206       .  T
C139        C140   1.207       .  T
C141        C142   1.204       .  T
C143        C144   1.206       .  T
C145        C146   1.208       .  T
C146        C163   1.438       .  S
C147        C166   1.437       .  S
C147        C148   1.207       .  T
C149        C150   1.207       .  T
C150        C165   1.437       .  S
C151        C152   1.208       .  T
C152        C164   1.438       .  S
O153        V161   1.910       .  S
O154        V161   1.910       .  S
O155        V161   1.896       .  S
O155        C165   1.262       .  A
O156        V161   1.896       .  S
O156        C166   1.262       .  A
O157        V162   1.908       .  S
O158        V162   1.908       .  S
O159        V162   1.895       .  S
O159        C164   1.261       .  A
O160        V162   1.895       .  S
O160        C163   1.261       .  A
C167        C168   1.527       .  S
C167        C173   1.528       .  S
C167        C171   1.535       .  S
C167        C295   1.468       .  S
C168        H175   1.087       .  S
C169        C170   1.544   1_554  S
C169        C292   1.443       .  S
C170        C174   1.544   1_556  S
C170        C172   1.533       .  S
C170        H176   1.111       .  S
C172        C294   1.439       .  S
C173        H178   1.087       .  S
C174        C297   1.444       .  S
C179        C290   1.444       .  S
C179        C180   1.394       .  A
C179        C184   1.412       .  A
C180        C485   1.394       .  A
C180        H199   1.087       .  S
C181        C296   1.444       .  S
C181        C484   1.394       .  A
C181        C182   1.412       .  A
C182        C487   1.421       .  A
C182        C189   1.406       .  A
C183        C486   1.421       .  A
C183        C184   1.421       .  A
C183        C188   1.418       .  A
C184        C185   1.406       .  A
C185        C186   1.395       .  A
C185        H195   1.083       .  S
C186        C187   1.405       .  A
C186        H196   1.083       .  S
C187        C188   1.421       .  A
C187        C194   1.412       .  A
C188        C495   1.421       .  A
C189        C190   1.395       .  A
C189        H197   1.083       .  S
C190        C191   1.405       .  A
C190        H198   1.083       .  S
C191        C492   1.421       .  A
C191        C192   1.412       .  A
C192        C293   1.443       .  S
C192        C497   1.393       .  A
C193        C496   1.393       .  A
C193        C194   1.393       .  A
C193        H200   1.087       .  S
C194        C287   1.443       .  S
C201        C202   1.527       .  S
C201        C207   1.528       .  S
C201        C205   1.535       .  S
C201        C289   1.468       .  S
C202        H209   1.087       .  S
C203        C204   1.544   1_554  S
C203        C285   1.443       .  S
C204        C208   1.544   1_556  S
C204        C206   1.533       .  S
C204        H210   1.111       .  S
C206        C288   1.439       .  S
C207        H212   1.087       .  S
C208        C303   1.444       .  S
C213        C214   1.527       .  S
C213        C219   1.528       .  S
C213        C217   1.535       .  S
C213        C281   1.468       .  S
C214        H221   1.087       .  S
C215        C216   1.544       .  S
C215        C300   1.443       .  S
C216        C220   1.544       .  S
C216        C218   1.533       .  S
C216        H222   1.111       .  S
C218        C283   1.439       .  S
C219        H224   1.087       .  S
C220        C280   1.444       .  S
C225        C284   1.443       .  S
C225        C834   1.393       .  A
C225        C230   1.412       .  A
C226        C833   1.393       .  A
C226        C227   1.393       .  A
C226        H245   1.087       .  S
C227        C278   1.443       .  S
C227        C228   1.412       .  A
C228        C229   1.421       .  A
C228        C235   1.405       .  A
C229        C838   1.421       .  A
C229        C234   1.418       .  A
C230        C837   1.421       .  A
C230        C231   1.405       .  A
C231        C232   1.395       .  A
C231        H241   1.083       .  S
C232        C233   1.406       .  A
C232        H242   1.083       .  S
C233        C842   1.421       .  A
C233        C240   1.412       .  A
C234        C841   1.421       .  A
C234        C237   1.421       .  A
C235        C236   1.395       .  A
C235        H243   1.083       .  S
C236        C237   1.406       .  A
C236        H244   1.083       .  S
C237        C238   1.412       .  A
C238        C276   1.444       .  S
C238        C239   1.394       .  A
C239        C848   1.394       .  A
C239        H246   1.087       .  S
C240        C282   1.444       .  S
C240        C847   1.394   1_455  A
C247        C248   1.527       .  S
C247        C253   1.528       .  S
C247        C251   1.535       .  S
C247        C275   1.468       .  S
C248        H255   1.087       .  S
C249        C250   1.544       .  S
C249        C301   1.443       .  S
C250        C254   1.544       .  S
C250        C252   1.533       .  S
C250        H256   1.111       .  S
C252        C277   1.439       .  S
C253        H258   1.087       .  S
C254        C273   1.444       .  S
O259        V571   1.910       .  S
O260        V875   1.910       .  S
O261       V1179   1.896       .  S
O262        V267   1.896       .  S
O263        V876   1.908       .  S
O263        C272   1.265   1_556  A
O264        V572   1.908       .  S
O264        C271   1.265   1_556  A
O265        V268   1.895       .  S
O265        C270   1.262       .  A
O266       V1180   1.895       .  S
O266        C269   1.261       .  A
V267        O563   1.910       .  S
V267        O868   1.910       .  S
V267       O1173   1.896       .  S
V267        V724   2.090       .  T
V268        O871   1.908   1_455  S
V268        O568   1.908       .  S
V268       O1178   1.895   1_455  S
V268        V723   2.090   1_556  T
C269        C274   1.438       .  S
C270        C279   1.438       .  S
C271        C291   1.437       .  S
C272        C286   1.437       .  S
C275        C276   1.206       .  T
C277        C278   1.204       .  T
C281        C282   1.206       .  T
C283        C284   1.204       .  T
C285        C286   1.207       .  T
C287        C288   1.204       .  T
C289        C290   1.206       .  T
C291        C292   1.207       .  T
C293        C294   1.204       .  T
C295        C296   1.206       .  T
C297        C298   1.208       .  T
C299        C300   1.207       .  T
C301        C302   1.207       .  T
C303        C304   1.208       .  T
O305        V313   1.910       .  S
O305        C467   1.265       .  A
O306        V313   1.910       .  S
O306        C468   1.265       .  A
O307        V313   1.896       .  S
O307        C317   1.262       .  A
O308        V313   1.896       .  S
O308        C318   1.262       .  A
O309        V314   1.908       .  S
O309        C470   1.265   1_554  A
O310        V314   1.908       .  S
O310        C469   1.265   1_554  A
O311        V314   1.895       .  S
O311        C316   1.262   1_554  A
O312        V314   1.895       .  S
O312        C315   1.261   1_554  A
V313        V466   2.090       .  T
V314        V465   2.090   1_554  T
C315        O457   1.265       .  A
C315        C602   1.438   1_556  S
C316        O458   1.265       .  A
C316        C608   1.438   1_556  S
C317        O462   1.265       .  A
C317        C606   1.437       .  S
C318        O461   1.265       .  A
C318        C603   1.437       .  S
C319        C320   1.527       .  S
C319        C325   1.528       .  S
C319        C323   1.535       .  S
C319        C447   1.468       .  S
C320        H327   1.087       .  S
C320        C473   1.364       .  D
C321        C322   1.544       .  S
C321        C472   1.364       .  D
C321        C444   1.443       .  S
C322        C326   1.544       .  S
C322        C324   1.533       .  S
C322        H328   1.111       .  S
C323        H481   1.087       .  S
C323        C476   1.363   1_554  D
C324        C475   1.363       .  D
C324        C446   1.439       .  S
C325        H330   1.087       .  S
C325        C478   1.366       .  D
C326        C477   1.366       .  D
C326        C449   1.444       .  S
H329        C475   1.087       .  S
C331        C442   1.444       .  S
C331        C332   1.394   1_565  A
C331        C336   1.412       .  A
C332        H351   1.087       .  S
C333        C448   1.444       .  S
C333        C334   1.412       .  A
C334        C341   1.406       .  A
C335        C336   1.421   1_545  A
C335        C340   1.418       .  A
C336        C337   1.406       .  A
C337        C338   1.395       .  A
C337        H347   1.083       .  S
C338        C339   1.405       .  A
C338        H348   1.083       .  S
C339        C340   1.421   1_565  A
C339        C346   1.412       .  A
C341        C342   1.395       .  A
C341        H349   1.083       .  S
C342        C343   1.405       .  A
C342        H350   1.083       .  S
C343        C344   1.412       .  A
C344        C445   1.443       .  S
C345        C346   1.393   1_545  A
C345        H352   1.087       .  S
C346        C439   1.443       .  S
C353        C354   1.527       .  S
C353        C359   1.528       .  S
C353        C357   1.535       .  S
C353        C441   1.468       .  S
C354        H361   1.087       .  S
C354        C507   1.364       .  D
C355        C356   1.544       .  S
C355        C506   1.364       .  D
C355        C437   1.443       .  S
C356        C360   1.544       .  S
C356        C358   1.533       .  S
C356        H362   1.111       .  S
C357        H515   1.087       .  S
C357        C510   1.363   1_554  D
C358        C509   1.363       .  D
C358        C440   1.439       .  S
C359        H364   1.087       .  S
C359        C512   1.366       .  D
C360        C511   1.366       .  D
C360        C455   1.444       .  S
H363        C509   1.087       .  S
C365        C366   1.527       .  S
C365        C371   1.528       .  S
C365        C369   1.535       .  S
C365        C433   1.468       .  S
C366        H373   1.087       .  S
C366        C519   1.364       .  D
C367        C368   1.544   1_556  S
C367        C518   1.364       .  D
C367        C452   1.443       .  S
C368        C372   1.544   1_554  S
C368        C370   1.533       .  S
C368        H374   1.111       .  S
C369        H527   1.087       .  S
C369        C522   1.363       .  D
C370        C521   1.363   1_554  D
C370        C435   1.439       .  S
C371        H376   1.087       .  S
C371        C524   1.366       .  D
C372        C523   1.366       .  D
C372        C432   1.444       .  S
H375        C521   1.087       .  S
C377        C436   1.443       .  S
C377        C986   1.393       .  A
C377        C382   1.412       .  A
C378        C985   1.393       .  A
C378        C379   1.393       .  A
C378        H397   1.087       .  S
C379        C430   1.443       .  S
C379        C380   1.412       .  A
C380        C381   1.421       .  A
C380        C387   1.405       .  A
C381        C990   1.421       .  A
C381        C386   1.418       .  A
C382        C989   1.421       .  A
C382        C383   1.405       .  A
C383        C384   1.395       .  A
C383        H393   1.083       .  S
C384        C385   1.406       .  A
C384        H394   1.083       .  S
C385        C994   1.421       .  A
C385        C392   1.412       .  A
C386        C993   1.421       .  A
C386        C389   1.421       .  A
C387        C388   1.395       .  A
C387        H395   1.083       .  S
C388        C389   1.406       .  A
C388        H396   1.083       .  S
C389        C390   1.412       .  A
C390        C428   1.444       .  S
C390        C391   1.394       .  A
C391       C1000   1.394       .  A
C391        H398   1.087       .  S
C392        C434   1.444       .  S
C392        C999   1.394       .  A
C399        C400   1.527       .  S
C399        C405   1.528       .  S
C399        C403   1.535       .  S
C399        C427   1.468       .  S
C400        H407   1.087       .  S
C400        C553   1.364       .  D
C401        C402   1.544   1_556  S
C401        C552   1.364       .  D
C401        C453   1.443       .  S
C402        C406   1.544   1_554  S
C402        C404   1.533       .  S
C402        H408   1.111       .  S
C403        H561   1.087       .  S
C403        C556   1.363       .  D
C404        C555   1.363   1_554  D
C404        C429   1.439       .  S
C405        H410   1.087       .  S
C405        C558   1.366       .  D
C406        C557   1.366       .  D
C406        C425   1.444       .  S
H409        C555   1.087       .  S
O411        C573   1.265   1_554  A
O412       V1027   1.910   1_565  S
O412        C574   1.265   1_554  A
O413        V723   1.896       .  S
O413        C575   1.262       .  A
O414        V419   1.896   1_565  S
O414        C576   1.262       .  A
O415       V1028   1.908   1_565  S
O415        C424   1.265       .  A
O416        C423   1.265       .  A
O417        V420   1.895   1_565  S
O417        C422   1.262       .  A
O418        V724   1.895       .  S
O418        C421   1.261       .  A
V419       O1020   1.910   1_545  S
V419        O717   1.896       .  S
V419       V1180   2.090   1_554  T
V420       O1023   1.908   1_445  S
V420        O722   1.895   1_455  S
V420       V1179   2.090       .  T
C421        O563   1.265       .  A
C421        C426   1.438       .  S
C422        O564   1.265       .  A
C422        C431   1.438       .  S
C423        O565   1.262       .  A
C423        C443   1.437       .  S
C424        O566   1.262       .  A
C424        C438   1.437       .  S
C425        C578   1.208       .  T
C426        C577   1.208       .  T
C427        C428   1.206       .  T
C429        C430   1.204       .  T
C431        C584   1.208       .  T
C432        C583   1.208       .  T
C433        C434   1.206       .  T
C435        C436   1.204       .  T
C437        C438   1.207       .  T
C439        C440   1.204       .  T
C441        C442   1.206       .  T
C443        C444   1.207       .  T
C445        C446   1.204       .  T
C447        C448   1.206       .  T
C449        C450   1.208       .  T
C450        C467   1.438       .  S
C451        C470   1.437       .  S
C451        C452   1.207       .  T
C453        C454   1.207       .  T
C454        C469   1.437       .  S
C455        C456   1.208       .  T
C456        C468   1.438       .  S
O457        V465   1.910       .  S
O458        V465   1.910       .  S
O459        V465   1.896       .  S
O459        C469   1.262       .  A
O460        V465   1.896       .  S
O460        C470   1.262       .  A
O461        V466   1.908       .  S
O462        V466   1.908       .  S
O463        V466   1.895       .  S
O463        C468   1.261       .  A
O464        V466   1.895       .  S
O464        C467   1.261       .  A
C471        C472   1.527       .  S
C471        C477   1.528       .  S
C471        C475   1.535       .  S
C471        C599   1.468       .  S
C472        H479   1.087       .  S
C473        C474   1.544   1_554  S
C473        C596   1.443       .  S
C474        C478   1.544   1_556  S
C474        C476   1.533       .  S
C474        H480   1.111       .  S
C476        C598   1.439       .  S
C477        H482   1.087       .  S
C478        C601   1.444       .  S
C483        C594   1.444       .  S
C483        C484   1.394   1_565  A
C483        C488   1.412       .  A
C484        H503   1.087       .  S
C485        C600   1.444       .  S
C485        C486   1.412       .  A
C486        C493   1.406       .  A
C487        C488   1.421   1_545  A
C487        C492   1.418       .  A
C488        C489   1.406       .  A
C489        C490   1.395       .  A
C489        H499   1.083       .  S
C490        C491   1.405       .  A
C490        H500   1.083       .  S
C491        C492   1.421   1_565  A
C491        C498   1.412       .  A
C493        C494   1.395       .  A
C493        H501   1.083       .  S
C494        C495   1.405       .  A
C494        H502   1.083       .  S
C495        C496   1.412       .  A
C496        C597   1.443       .  S
C497        C498   1.393   1_545  A
C497        H504   1.087       .  S
C498        C591   1.443       .  S
C505        C506   1.527       .  S
C505        C511   1.528       .  S
C505        C509   1.535       .  S
C505        C593   1.468       .  S
C506        H513   1.087       .  S
C507        C508   1.544   1_554  S
C507        C589   1.443       .  S
C508        C512   1.544   1_556  S
C508        C510   1.533       .  S
C508        H514   1.111       .  S
C510        C592   1.439       .  S
C511        H516   1.087       .  S
C512        C607   1.444       .  S
C517        C518   1.527       .  S
C517        C523   1.528       .  S
C517        C521   1.535       .  S
C517        C585   1.468       .  S
C518        H525   1.087       .  S
C519        C520   1.544       .  S
C519        C604   1.443       .  S
C520        C524   1.544       .  S
C520        C522   1.533       .  S
C520        H526   1.111       .  S
C522        C587   1.439       .  S
C523        H528   1.087       .  S
C524        C584   1.444       .  S
C529        C588   1.443       .  S
C529       C1138   1.393       .  A
C529        C534   1.412       .  A
C530       C1137   1.393       .  A
C530        C531   1.393       .  A
C530        H549   1.087       .  S
C531        C582   1.443       .  S
C531        C532   1.412       .  A
C532        C533   1.421       .  A
C532        C539   1.405       .  A
C533       C1142   1.421       .  A
C533        C538   1.418       .  A
C534       C1141   1.421       .  A
C534        C535   1.405       .  A
C535        C536   1.395       .  A
C535        H545   1.083       .  S
C536        C537   1.406       .  A
C536        H546   1.083       .  S
C537       C1146   1.421       .  A
C537        C544   1.412       .  A
C538       C1145   1.421       .  A
C538        C541   1.421       .  A
C539        C540   1.395       .  A
C539        H547   1.083       .  S
C540        C541   1.406       .  A
C540        H548   1.083       .  S
C541        C542   1.412       .  A
C542        C580   1.444       .  S
C542        C543   1.394       .  A
C543       C1152   1.394       .  A
C543        H550   1.087       .  S
C544        C586   1.444       .  S
C544       C1151   1.394   1_455  A
C551        C552   1.527       .  S
C551        C557   1.528       .  S
C551        C555   1.535       .  S
C551        C579   1.468       .  S
C552        H559   1.087       .  S
C553        C554   1.544       .  S
C553        C605   1.443       .  S
C554        C558   1.544       .  S
C554        C556   1.533       .  S
C554        H560   1.111       .  S
C556        C581   1.439       .  S
C557        H562   1.087       .  S
C558        C577   1.444       .  S
O564       V1179   1.910   1_565  S
O565        V875   1.896       .  S
O566        V571   1.896   1_565  S
O567       V1180   1.908   1_565  S
O567        C576   1.265   1_556  A
O568        C575   1.265   1_556  A
O569        V572   1.895   1_565  S
O569        C574   1.262       .  A
O570        V876   1.895       .  S
O570        C573   1.261       .  A
V571       O1172   1.910   1_545  S
V571        O869   1.896       .  S
V571       V1028   2.090       .  T
V572       O1175   1.908   1_445  S
V572        O874   1.895   1_455  S
V572       V1027   2.090   1_556  T
C573        C578   1.438       .  S
C574        C583   1.438       .  S
C575        C595   1.437       .  S
C576        C590   1.437       .  S
C579        C580   1.206       .  T
C581        C582   1.204       .  T
C585        C586   1.206       .  T
C587        C588   1.204       .  T
C589        C590   1.207       .  T
C591        C592   1.204       .  T
C593        C594   1.206       .  T
C595        C596   1.207       .  T
C597        C598   1.204       .  T
C599        C600   1.206       .  T
C601        C602   1.208       .  T
C603        C604   1.207       .  T
C605        C606   1.207       .  T
C607        C608   1.208       .  T
O609        V617   1.910       .  S
O609        C771   1.265       .  A
O610        V617   1.910       .  S
O610        C772   1.265       .  A
O611        V617   1.896       .  S
O611        C621   1.262       .  A
O612        V617   1.896       .  S
O612        C622   1.262       .  A
O613        V618   1.908       .  S
O613        C774   1.265   1_554  A
O614        V618   1.908       .  S
O614        C773   1.265   1_554  A
O615        V618   1.895       .  S
O615        C620   1.262   1_554  A
O616        V618   1.895       .  S
O616        C619   1.261   1_554  A
V617        V770   2.090       .  T
V618        V769   2.090   1_554  T
C619        O761   1.265       .  A
C619        C906   1.438   1_556  S
C620        O762   1.265       .  A
C620        C912   1.438   1_556  S
C621        O766   1.265       .  A
C621        C910   1.437       .  S
C622        O765   1.265       .  A
C622        C907   1.437       .  S
C623        C624   1.527       .  S
C623        C629   1.528       .  S
C623        C627   1.535       .  S
C623        C751   1.468       .  S
C624        H631   1.087       .  S
C624        C777   1.364       .  D
C625        C626   1.544       .  S
C625        C776   1.364       .  D
C625        C748   1.443       .  S
C626        C630   1.544       .  S
C626        C628   1.533       .  S
C626        H632   1.111       .  S
C627        H785   1.087       .  S
C627        C780   1.363   1_554  D
C628        C779   1.363       .  D
C628        C750   1.439       .  S
C629        H634   1.087       .  S
C629        C782   1.366       .  D
C630        C781   1.366       .  D
C630        C753   1.444       .  S
H633        C779   1.087       .  S
C635        C746   1.444       .  S
C635        C636   1.394       .  A
C635        C640   1.412       .  A
C636        C941   1.394       .  A
C636        H655   1.087       .  S
C637        C752   1.444       .  S
C637        C940   1.394       .  A
C637        C638   1.412       .  A
C638        C943   1.421       .  A
C638        C645   1.406       .  A
C639        C942   1.421       .  A
C639        C640   1.421       .  A
C639        C644   1.418       .  A
C640        C641   1.406       .  A
C641        C642   1.395       .  A
C641        H651   1.083       .  S
C642        C643   1.405       .  A
C642        H652   1.083       .  S
C643        C644   1.421       .  A
C643        C650   1.412       .  A
C644        C951   1.421       .  A
C645        C646   1.395       .  A
C645        H653   1.083       .  S
C646        C647   1.405       .  A
C646        H654   1.083       .  S
C647        C948   1.421       .  A
C647        C648   1.412       .  A
C648        C749   1.443       .  S
C648        C953   1.393       .  A
C649        C952   1.393       .  A
C649        C650   1.393       .  A
C649        H656   1.087       .  S
C650        C743   1.443       .  S
C657        C658   1.527       .  S
C657        C663   1.528       .  S
C657        C661   1.535       .  S
C657        C745   1.468       .  S
C658        H665   1.087       .  S
C658        C811   1.364       .  D
C659        C660   1.544       .  S
C659        C810   1.364       .  D
C659        C741   1.443       .  S
C660        C664   1.544       .  S
C660        C662   1.533       .  S
C660        H666   1.111       .  S
C661        H819   1.087       .  S
C661        C814   1.363   1_554  D
C662        C813   1.363       .  D
C662        C744   1.439       .  S
C663        H668   1.087       .  S
C663        C816   1.366       .  D
C664        C815   1.366       .  D
C664        C759   1.444       .  S
H667        C813   1.087       .  S
C669        C670   1.527       .  S
C669        C675   1.528       .  S
C669        C673   1.535       .  S
C669        C737   1.468       .  S
C670        H677   1.087       .  S
C670        C823   1.364       .  D
C671        C672   1.544   1_556  S
C671        C822   1.364       .  D
C671        C756   1.443       .  S
C672        C676   1.544   1_554  S
C672        C674   1.533       .  S
C672        H678   1.111       .  S
C673        H831   1.087       .  S
C673        C826   1.363       .  D
C674        C825   1.363   1_554  D
C674        C739   1.439       .  S
C675        H680   1.087       .  S
C675        C828   1.366       .  D
C676        C827   1.366       .  D
C676        C736   1.444       .  S
H679        C825   1.087       .  S
C681        C740   1.443       .  S
C681        C686   1.412       .  A
C682        C683   1.393   1_455  A
C682        H701   1.087   1_455  S
C683        C734   1.443       .  S
C683        C684   1.412       .  A
C684        C685   1.421   1_655  A
C684        C691   1.405       .  A
C685        C690   1.418       .  A
C686        C687   1.405       .  A
C687        C688   1.395       .  A
C687        H697   1.083       .  S
C688        C689   1.406       .  A
C688        H698   1.083       .  S
C689        C696   1.412       .  A
C690        C693   1.421   1_455  A
C691        C692   1.395       .  A
C691        H699   1.083       .  S
C692        C693   1.406       .  A
C692        H700   1.083       .  S
C693        C694   1.412       .  A
C694        C732   1.444       .  S
C694        C695   1.394   1_655  A
C695        H702   1.087       .  S
C696        C738   1.444       .  S
C703        C704   1.527       .  S
C703        C709   1.528       .  S
C703        C707   1.535       .  S
C703        C731   1.468       .  S
C704        H711   1.087       .  S
C704        C857   1.364       .  D
C705        C706   1.544   1_556  S
C705        C856   1.364       .  D
C705        C757   1.443       .  S
C706        C710   1.544   1_554  S
C706        C708   1.533       .  S
C706        H712   1.111       .  S
C707        H865   1.087       .  S
C707        C860   1.363       .  D
C708        C859   1.363   1_554  D
C708        C733   1.439       .  S
C709        H714   1.087       .  S
C709        C862   1.366       .  D
C710        C861   1.366       .  D
C710        C729   1.444       .  S
H713        C859   1.087       .  S
O715       V1027   1.910   1_655  S
O715        C877   1.265   1_554  A
O716        C878   1.265   1_554  A
O717        C879   1.262       .  A
O718        V723   1.896   1_655  S
O718        C880   1.262       .  A
O719        C728   1.265       .  A
O720       V1028   1.908       .  S
O720        C727   1.265       .  A
O721        V724   1.895       .  S
O721        C726   1.262       .  A
O722        C725   1.261       .  A
V723       O1019   1.910   1_455  S
V724       O1024   1.908       .  S
C725        O867   1.265       .  A
C725        C730   1.438       .  S
C726        O868   1.265       .  A
C726        C735   1.438       .  S
C727        O869   1.262       .  A
C727        C747   1.437       .  S
C728        O870   1.262       .  A
C728        C742   1.437       .  S
C729        C882   1.208       .  T
C730        C881   1.208       .  T
C731        C732   1.206       .  T
C733        C734   1.204       .  T
C735        C888   1.208       .  T
C736        C887   1.208       .  T
C737        C738   1.206       .  T
C739        C740   1.204       .  T
C741        C742   1.207       .  T
C743        C744   1.204       .  T
C745        C746   1.206       .  T
C747        C748   1.207       .  T
C749        C750   1.204       .  T
C751        C752   1.206       .  T
C753        C754   1.208       .  T
C754        C771   1.438       .  S
C755        C774   1.437       .  S
C755        C756   1.207       .  T
C757        C758   1.207       .  T
C758        C773   1.437       .  S
C759        C760   1.208       .  T
C760        C772   1.438       .  S
O761        V769   1.910       .  S
O762        V769   1.910       .  S
O763        V769   1.896       .  S
O763        C773   1.262       .  A
O764        V769   1.896       .  S
O764        C774   1.262       .  A
O765        V770   1.908       .  S
O766        V770   1.908       .  S
O767        V770   1.895       .  S
O767        C772   1.261       .  A
O768        V770   1.895       .  S
O768        C771   1.261       .  A
C775        C776   1.527       .  S
C775        C781   1.528       .  S
C775        C779   1.535       .  S
C775        C903   1.468       .  S
C776        H783   1.087       .  S
C777        C778   1.544   1_554  S
C777        C900   1.443       .  S
C778        C782   1.544   1_556  S
C778        C780   1.533       .  S
C778        H784   1.111       .  S
C780        C902   1.439       .  S
C781        H786   1.087       .  S
C782        C905   1.444       .  S
C787        C898   1.444       .  S
C787        C788   1.394       .  A
C787        C792   1.412       .  A
C788       C1093   1.394       .  A
C788        H807   1.087       .  S
C789        C904   1.444       .  S
C789       C1092   1.394       .  A
C789        C790   1.412       .  A
C790       C1095   1.421       .  A
C790        C797   1.406       .  A
C791       C1094   1.421       .  A
C791        C792   1.421       .  A
C791        C796   1.418       .  A
C792        C793   1.406       .  A
C793        C794   1.395       .  A
C793        H803   1.083       .  S
C794        C795   1.405       .  A
C794        H804   1.083       .  S
C795        C796   1.421       .  A
C795        C802   1.412       .  A
C796       C1103   1.421       .  A
C797        C798   1.395       .  A
C797        H805   1.083       .  S
C798        C799   1.405       .  A
C798        H806   1.083       .  S
C799       C1100   1.421       .  A
C799        C800   1.412       .  A
C800        C901   1.443       .  S
C800       C1105   1.393       .  A
C801       C1104   1.393       .  A
C801        C802   1.393       .  A
C801        H808   1.087       .  S
C802        C895   1.443       .  S
C809        C810   1.527       .  S
C809        C815   1.528       .  S
C809        C813   1.535       .  S
C809        C897   1.468       .  S
C810        H817   1.087       .  S
C811        C812   1.544   1_554  S
C811        C893   1.443       .  S
C812        C816   1.544   1_556  S
C812        C814   1.533       .  S
C812        H818   1.111       .  S
C814        C896   1.439       .  S
C815        H820   1.087       .  S
C816        C911   1.444       .  S
C821        C822   1.527       .  S
C821        C827   1.528       .  S
C821        C825   1.535       .  S
C821        C889   1.468       .  S
C822        H829   1.087       .  S
C823        C824   1.544       .  S
C823        C908   1.443       .  S
C824        C828   1.544       .  S
C824        C826   1.533       .  S
C824        H830   1.111       .  S
C826        C891   1.439       .  S
C827        H832   1.087       .  S
C828        C888   1.444       .  S
C833        C892   1.443       .  S
C833        C838   1.412       .  A
C834        C835   1.393   1_455  A
C834        H853   1.087       .  S
C835        C886   1.443       .  S
C835        C836   1.412       .  A
C836        C837   1.421   1_655  A
C836        C843   1.405       .  A
C837        C842   1.418       .  A
C838        C839   1.405       .  A
C839        C840   1.395       .  A
C839        H849   1.083       .  S
C840        C841   1.406       .  A
C840        H850   1.083       .  S
C841        C848   1.412       .  A
C842        C845   1.421   1_455  A
C843        C844   1.395       .  A
C843        H851   1.083       .  S
C844        C845   1.406       .  A
C844        H852   1.083       .  S
C845        C846   1.412       .  A
C846        C884   1.444       .  S
C846        C847   1.394       .  A
C847        H854   1.087       .  S
C848        C890   1.444       .  S
C855        C856   1.527       .  S
C855        C861   1.528       .  S
C855        C859   1.535       .  S
C855        C883   1.468       .  S
C856        H863   1.087       .  S
C857        C858   1.544       .  S
C857        C909   1.443       .  S
C858        C862   1.544       .  S
C858        C860   1.533       .  S
C858        H864   1.111       .  S
C860        C885   1.439       .  S
C861        H866   1.087       .  S
C862        C881   1.444       .  S
O867       V1179   1.910   1_655  S
O870        V875   1.896   1_655  S
O871        C880   1.265   1_556  A
O872       V1180   1.908       .  S
O872        C879   1.265   1_556  A
O873        V876   1.895       .  S
O873        C878   1.262       .  A
O874        C877   1.261       .  A
V875       O1171   1.910   1_455  S
V876       O1176   1.908       .  S
C877        C882   1.438       .  S
C878        C887   1.438       .  S
C879        C899   1.437       .  S
C880        C894   1.437       .  S
C883        C884   1.206       .  T
C885        C886   1.204       .  T
C889        C890   1.206       .  T
C891        C892   1.204       .  T
C893        C894   1.207       .  T
C895        C896   1.204       .  T
C897        C898   1.206       .  T
C899        C900   1.207       .  T
C901        C902   1.204       .  T
C903        C904   1.206       .  T
C905        C906   1.208       .  T
C907        C908   1.207       .  T
C909        C910   1.207       .  T
C911        C912   1.208       .  T
O913        V921   1.910       .  S
O913       C1075   1.265       .  A
O914        V921   1.910       .  S
O914       C1076   1.265       .  A
O915        V921   1.896       .  S
O915        C925   1.262       .  A
O916        V921   1.896       .  S
O916        C926   1.262       .  A
O917        V922   1.908       .  S
O917       C1078   1.265   1_554  A
O918        V922   1.908       .  S
O918       C1077   1.265   1_554  A
O919        V922   1.895       .  S
O919        C924   1.262   1_554  A
O920        V922   1.895       .  S
O920        C923   1.261   1_554  A
V921       V1074   2.090       .  T
V922       V1073   2.090   1_554  T
C923       O1065   1.265       .  A
C923       C1210   1.438   1_556  S
C924       O1066   1.265       .  A
C924       C1216   1.438   1_556  S
C925       O1070   1.265       .  A
C925       C1214   1.437       .  S
C926       O1069   1.265       .  A
C926       C1211   1.437       .  S
C927        C928   1.527       .  S
C927        C933   1.528       .  S
C927        C931   1.535       .  S
C927       C1055   1.468       .  S
C928        H935   1.087       .  S
C928       C1081   1.364       .  D
C929        C930   1.544       .  S
C929       C1080   1.364       .  D
C929       C1052   1.443       .  S
C930        C934   1.544       .  S
C930        C932   1.533       .  S
C930        H936   1.111       .  S
C931       H1089   1.087       .  S
C931       C1084   1.363   1_554  D
C932       C1083   1.363       .  D
C932       C1054   1.439       .  S
C933        H938   1.087       .  S
C933       C1086   1.366       .  D
C934       C1085   1.366       .  D
C934       C1057   1.444       .  S
H937       C1083   1.087       .  S
C939       C1050   1.444       .  S
C939        C940   1.394   1_565  A
C939        C944   1.412       .  A
C940        H959   1.087       .  S
C941       C1056   1.444       .  S
C941        C942   1.412       .  A
C942        C949   1.406       .  A
C943        C944   1.421   1_545  A
C943        C948   1.418       .  A
C944        C945   1.406       .  A
C945        C946   1.395       .  A
C945        H955   1.083       .  S
C946        C947   1.405       .  A
C946        H956   1.083       .  S
C947        C948   1.421   1_565  A
C947        C954   1.412       .  A
C949        C950   1.395       .  A
C949        H957   1.083       .  S
C950        C951   1.405       .  A
C950        H958   1.083       .  S
C951        C952   1.412       .  A
C952       C1053   1.443       .  S
C953        C954   1.393   1_545  A
C953        H960   1.087       .  S
C954       C1047   1.443       .  S
C961        C962   1.527       .  S
C961        C967   1.528       .  S
C961        C965   1.535       .  S
C961       C1049   1.468       .  S
C962        H969   1.087       .  S
C962       C1115   1.364       .  D
C963        C964   1.544       .  S
C963       C1114   1.364       .  D
C963       C1045   1.443       .  S
C964        C968   1.544       .  S
C964        C966   1.533       .  S
C964        H970   1.111       .  S
C965       H1123   1.087       .  S
C965       C1118   1.363   1_554  D
C966       C1117   1.363       .  D
C966       C1048   1.439       .  S
C967        H972   1.087       .  S
C967       C1120   1.366       .  D
C968       C1119   1.366       .  D
C968       C1063   1.444       .  S
H971       C1117   1.087       .  S
C973        C974   1.527       .  S
C973        C979   1.528       .  S
C973        C977   1.535       .  S
C973       C1041   1.468       .  S
C974        H981   1.087       .  S
C974       C1127   1.364       .  D
C975        C976   1.544   1_556  S
C975       C1126   1.364       .  D
C975       C1060   1.443       .  S
C976        C980   1.544   1_554  S
C976        C978   1.533       .  S
C976        H982   1.111       .  S
C977       H1135   1.087       .  S
C977       C1130   1.363       .  D
C978       C1129   1.363   1_554  D
C978       C1043   1.439       .  S
C979        H984   1.087       .  S
C979       C1132   1.366       .  D
C980       C1131   1.366       .  D
C980       C1040   1.444       .  S
H983       C1129   1.087       .  S
C985       C1044   1.443       .  S
C985        C990   1.412       .  A
C986        C987   1.393   1_455  A
C986       H1005   1.087   1_455  S
C987       C1038   1.443       .  S
C987        C988   1.412       .  A
C988        C989   1.421   1_655  A
C988        C995   1.405       .  A
C989        C994   1.418       .  A
C990        C991   1.405       .  A
C991        C992   1.395       .  A
C991       H1001   1.083       .  S
C992        C993   1.406       .  A
C992       H1002   1.083       .  S
C993       C1000   1.412       .  A
C994        C997   1.421   1_455  A
C995        C996   1.395       .  A
C995       H1003   1.083       .  S
C996        C997   1.406       .  A
C996       H1004   1.083       .  S
C997        C998   1.412       .  A
C998       C1036   1.444       .  S
C998        C999   1.394   1_655  A
C999       H1006   1.087       .  S
C1000      C1042   1.444       .  S
C1007      C1008   1.527       .  S
C1007      C1013   1.528       .  S
C1007      C1011   1.535       .  S
C1007      C1035   1.468       .  S
C1008      H1015   1.087       .  S
C1008      C1161   1.364       .  D
C1009      C1010   1.544   1_556  S
C1009      C1160   1.364       .  D
C1009      C1061   1.443       .  S
C1010      C1014   1.544   1_554  S
C1010      C1012   1.533       .  S
C1010      H1016   1.111       .  S
C1011      H1169   1.087       .  S
C1011      C1164   1.363       .  D
C1012      C1163   1.363   1_554  D
C1012      C1037   1.439       .  S
C1013      H1018   1.087       .  S
C1013      C1166   1.366       .  D
C1014      C1165   1.366       .  D
C1014      C1033   1.444       .  S
H1017      C1163   1.087       .  S
O1019      C1181   1.265   1_554  A
O1020      C1182   1.265   1_554  A
O1021      C1183   1.262       .  A
O1022      V1027   1.896   1_665  S
O1022      C1184   1.262       .  A
O1023      C1032   1.265       .  A
O1024      C1031   1.265       .  A
O1025      V1028   1.895   1_565  S
O1025      C1030   1.262       .  A
O1026      C1029   1.261       .  A
C1029      O1171   1.265       .  A
C1029      C1034   1.438       .  S
C1030      O1172   1.265       .  A
C1030      C1039   1.438       .  S
C1031      O1173   1.262       .  A
C1031      C1051   1.437       .  S
C1032      O1174   1.262       .  A
C1032      C1046   1.437       .  S
C1033      C1186   1.208       .  T
C1034      C1185   1.208       .  T
C1035      C1036   1.206       .  T
C1037      C1038   1.204       .  T
C1039      C1192   1.208       .  T
C1040      C1191   1.208       .  T
C1041      C1042   1.206       .  T
C1043      C1044   1.204       .  T
C1045      C1046   1.207       .  T
C1047      C1048   1.204       .  T
C1049      C1050   1.206       .  T
C1051      C1052   1.207       .  T
C1053      C1054   1.204       .  T
C1055      C1056   1.206       .  T
C1057      C1058   1.208       .  T
C1058      C1075   1.438       .  S
C1059      C1078   1.437       .  S
C1059      C1060   1.207       .  T
C1061      C1062   1.207       .  T
C1062      C1077   1.437       .  S
C1063      C1064   1.208       .  T
C1064      C1076   1.438       .  S
O1065      V1073   1.910       .  S
O1066      V1073   1.910       .  S
O1067      V1073   1.896       .  S
O1067      C1077   1.262       .  A
O1068      V1073   1.896       .  S
O1068      C1078   1.262       .  A
O1069      V1074   1.908       .  S
O1070      V1074   1.908       .  S
O1071      V1074   1.895       .  S
O1071      C1076   1.261       .  A
O1072      V1074   1.895       .  S
O1072      C1075   1.261       .  A
C1079      C1080   1.527       .  S
C1079      C1085   1.528       .  S
C1079      C1083   1.535       .  S
C1079      C1207   1.468       .  S
C1080      H1087   1.087       .  S
C1081      C1082   1.544   1_554  S
C1081      C1204   1.443       .  S
C1082      C1086   1.544   1_556  S
C1082      C1084   1.533       .  S
C1082      H1088   1.111       .  S
C1084      C1206   1.439       .  S
C1085      H1090   1.087       .  S
C1086      C1209   1.444       .  S
C1091      C1202   1.444       .  S
C1091      C1092   1.394   1_565  A
C1091      C1096   1.412       .  A
C1092      H1111   1.087       .  S
C1093      C1208   1.444       .  S
C1093      C1094   1.412       .  A
C1094      C1101   1.406       .  A
C1095      C1096   1.421   1_545  A
C1095      C1100   1.418       .  A
C1096      C1097   1.406       .  A
C1097      C1098   1.395       .  A
C1097      H1107   1.083       .  S
C1098      C1099   1.405       .  A
C1098      H1108   1.083       .  S
C1099      C1100   1.421   1_565  A
C1099      C1106   1.412       .  A
C1101      C1102   1.395       .  A
C1101      H1109   1.083       .  S
C1102      C1103   1.405       .  A
C1102      H1110   1.083       .  S
C1103      C1104   1.412       .  A
C1104      C1205   1.443       .  S
C1105      C1106   1.393   1_545  A
C1105      H1112   1.087       .  S
C1106      C1199   1.443       .  S
C1113      C1114   1.527       .  S
C1113      C1119   1.528       .  S
C1113      C1117   1.535       .  S
C1113      C1201   1.468       .  S
C1114      H1121   1.087       .  S
C1115      C1116   1.544   1_554  S
C1115      C1197   1.443       .  S
C1116      C1120   1.544   1_556  S
C1116      C1118   1.533       .  S
C1116      H1122   1.111       .  S
C1118      C1200   1.439       .  S
C1119      H1124   1.087       .  S
C1120      C1215   1.444       .  S
C1125      C1126   1.527       .  S
C1125      C1131   1.528       .  S
C1125      C1129   1.535       .  S
C1125      C1193   1.468       .  S
C1126      H1133   1.087       .  S
C1127      C1128   1.544       .  S
C1127      C1212   1.443       .  S
C1128      C1132   1.544       .  S
C1128      C1130   1.533       .  S
C1128      H1134   1.111       .  S
C1130      C1195   1.439       .  S
C1131      H1136   1.087       .  S
C1132      C1192   1.444       .  S
C1137      C1196   1.443       .  S
C1137      C1142   1.412       .  A
C1138      C1139   1.393   1_455  A
C1138      H1157   1.087       .  S
C1139      C1190   1.443       .  S
C1139      C1140   1.412       .  A
C1140      C1141   1.421   1_655  A
C1140      C1147   1.405       .  A
C1141      C1146   1.418       .  A
C1142      C1143   1.405       .  A
C1143      C1144   1.395       .  A
C1143      H1153   1.083       .  S
C1144      C1145   1.406       .  A
C1144      H1154   1.083       .  S
C1145      C1152   1.412       .  A
C1146      C1149   1.421   1_455  A
C1147      C1148   1.395       .  A
C1147      H1155   1.083       .  S
C1148      C1149   1.406       .  A
C1148      H1156   1.083       .  S
C1149      C1150   1.412       .  A
C1150      C1188   1.444       .  S
C1150      C1151   1.394       .  A
C1151      H1158   1.087       .  S
C1152      C1194   1.444       .  S
C1159      C1160   1.527       .  S
C1159      C1165   1.528       .  S
C1159      C1163   1.535       .  S
C1159      C1187   1.468       .  S
C1160      H1167   1.087       .  S
C1161      C1162   1.544       .  S
C1161      C1213   1.443       .  S
C1162      C1166   1.544       .  S
C1162      C1164   1.533       .  S
C1162      H1168   1.111       .  S
C1164      C1189   1.439       .  S
C1165      H1170   1.087       .  S
C1166      C1185   1.444       .  S
O1174      V1179   1.896   1_665  S
O1175      C1184   1.265   1_556  A
O1176      C1183   1.265   1_556  A
O1177      V1180   1.895   1_565  S
O1177      C1182   1.262       .  A
O1178      C1181   1.261       .  A
C1181      C1186   1.438       .  S
C1182      C1191   1.438       .  S
C1183      C1203   1.437       .  S
C1184      C1198   1.437       .  S
C1187      C1188   1.206       .  T
C1189      C1190   1.204       .  T
C1193      C1194   1.206       .  T
C1195      C1196   1.204       .  T
C1197      C1198   1.207       .  T
C1199      C1200   1.204       .  T
C1201      C1202   1.206       .  T
C1203      C1204   1.207       .  T
C1205      C1206   1.204       .  T
C1207      C1208   1.206       .  T
C1209      C1210   1.208       .  T
C1211      C1212   1.207       .  T
C1213      C1214   1.207       .  T
C1215      C1216   1.208       .  T
