geometry optimzed in LAMMPS
_audit_creation_date              2020-11-30 
_audit_creation_method            'lammps2cif' 
_symmetry_space_group_name_H-M    'P1' 
_symmetry_Int_Tables_number       1 
_symmetry_cell_setting            triclinic 
loop_ 
_symmetry_equiv_pos_as_xyz 
  x,y,z 
_cell_length_a                    84.37216491 
_cell_length_b                    59.55485049907165 
_cell_length_c                    60.43028545450718 
_cell_angle_alpha                 90.11271360285089 
_cell_angle_beta                  92.09658313435938 
_cell_angle_gamma                 89.96980691822188 
loop_ 
_atom_site_label 
_atom_site_type_symbol 
_atom_site_fract_x 
_atom_site_fract_y 
_atom_site_fract_z 
_atom_site_charge 
N1          N  0.71698700  0.83094366  0.11762163    -0.26600
N2          N  0.70380365  0.84292545  0.11683989    -0.34400
C3          C  0.69815232  0.84408448  0.13738716     0.01800
C4          C  0.70840274  0.83245207  0.15186707     0.07800
C5          C  0.72009283  0.82421024  0.13854136    -0.05300
H6          H  0.68742385  0.85290561  0.14139087     0.08500
H7          H  0.73048365  0.81466320  0.14381070     0.09700
Cu8        Cu  0.69516111  0.85842213  0.08780816     0.44200
Cu9        Cu  0.73059392  0.82511727  0.09044963     0.42000
Cu10       Cu  0.71994096  0.85346141  0.03925071     0.43900
N11         N  0.69061390  0.87482864  0.05767025    -0.34000
N12         N  0.69992637  0.87386523  0.04051655    -0.28200
C13         C  0.69435607  0.88810079  0.02474456    -0.04300
C14         C  0.68073063  0.89814530  0.03212596     0.07900
C15         C  0.67875496  0.88939190  0.05304423     0.01700
H16         H  0.69993546  0.89115014  0.00920603     0.09300
H17         H  0.66975948  0.89411807  0.06451737     0.08400
N18         N  0.73840153  0.83032271  0.04248947    -0.35400
N19         N  0.74221194  0.82011014  0.06133318    -0.27600
C20         C  0.75425511  0.80585208  0.05814337    -0.02800
C21         C  0.75822388  0.80686811  0.03614676     0.05800
C22         C  0.74797025  0.82275142  0.02675463     0.03900
H23         H  0.75954520  0.79519457  0.07089136     0.09000
H24         H  0.74756254  0.82861672  0.00980884     0.07800
N25         N  0.88181625  0.69609143  0.87796155    -0.26600
N26         N  0.89462228  0.68342853  0.87735697    -0.34400
C27         C  0.89809662  0.67971807  0.85612399     0.01800
C28         C  0.88670028  0.69025436  0.84259957     0.07800
C29         C  0.87667954  0.70064464  0.85715936    -0.05300
H30         H  0.90812196  0.66993011  0.85110073     0.08500
H31         H  0.86607024  0.71018436  0.85298711     0.09700
Cu32       Cu  0.90541599  0.66988725  0.90555900     0.44200
Cu33       Cu  0.87142626  0.70510304  0.90709803     0.42000
Cu34       Cu  0.88476577  0.67642426  0.95743288     0.43900
N35         N  0.91235425  0.65478969  0.93515050    -0.34000
N36         N  0.90471841  0.65640944  0.95382118    -0.28200
C37         C  0.91244186  0.64411192  0.96950403    -0.04300
C38         C  0.92557308  0.63445473  0.96017817     0.07900
C39         C  0.92514342  0.64165421  0.93846020     0.01700
H40         H  0.90903800  0.64290038  0.98650264     0.09300
H41         H  0.93353069  0.63763760  0.92593954     0.08400
N42         N  0.86617047  0.69938190  0.95588848    -0.35400
N43         N  0.86169290  0.71013532  0.93758603    -0.27600
C44         C  0.84961702  0.72394845  0.94193933    -0.02800
C45         C  0.84613083  0.72167545  0.96398808     0.05800
C46         C  0.85693792  0.70603230  0.97238901     0.03900
H47         H  0.84358580  0.73456459  0.92976999     0.09000
H48         H  0.85814988  0.70010281  0.98927148     0.07800
N49         N  0.86793935  0.69354946  0.63989395    -0.26600
N50         N  0.87556053  0.67414928  0.64155334    -0.34400
C51         C  0.87894356  0.66981244  0.66302384     0.01800
C52         C  0.87339701  0.68738835  0.67551652     0.07800
C53         C  0.86647485  0.70215726  0.66035255    -0.05300
H54         H  0.88517201  0.65500822  0.66910141     0.08500
H55         H  0.86047718  0.71774440  0.66395707     0.09700
Cu56       Cu  0.88182192  0.65448851  0.61490727     0.44200
Cu57       Cu  0.85883154  0.70671624  0.61005998     0.42000
Cu58       Cu  0.86822010  0.67398847  0.56184532     0.43900
N59         N  0.88922784  0.64068631  0.58553449    -0.34000
N60         N  0.88440784  0.64831346  0.56594392    -0.28200
C61         C  0.89298189  0.63865405  0.55023948    -0.04300
C62         C  0.90376030  0.62404112  0.56037571     0.07900
C63         C  0.90096903  0.62579935  0.58282214     0.01700
H64         H  0.89233843  0.64353470  0.53302312     0.09300
H65         H  0.90770599  0.61805456  0.59633975     0.08400
N66         N  0.85230963  0.70024678  0.56110233    -0.35400
N67         N  0.84891683  0.71264962  0.57844353    -0.27600
C68         C  0.83769667  0.72770486  0.57219271    -0.02800
C69         C  0.83372916  0.72438118  0.54986330     0.05800
C70         C  0.84339343  0.70692067  0.54348920     0.03900
H71         H  0.83281494  0.74003057  0.58318229     0.09000
H72         H  0.84360985  0.69909914  0.52734607     0.07800
N73         N  0.72002995  0.82801063  0.35547315    -0.26600
N74         N  0.70982247  0.84477782  0.35300711    -0.34400
C75         C  0.70625676  0.84745083  0.33127385     0.01800
C76         C  0.71469400  0.83179097  0.31939283     0.07800
C77         C  0.72326039  0.81971440  0.33536777    -0.05300
H78         H  0.69814544  0.85997998  0.32456560     0.08500
H79         H  0.73100618  0.80552671  0.33266924     0.09700
Cu80       Cu  0.70121745  0.86364799  0.37920726     0.44200
Cu81       Cu  0.72901447  0.81685745  0.38609655     0.42000
Cu82       Cu  0.71621058  0.84796938  0.43377151     0.43900
N83         N  0.69567004  0.88104374  0.40799127    -0.34000
N84         N  0.70148856  0.87547698  0.42784958    -0.28200
C85         C  0.69677645  0.89071500  0.44271747    -0.04300
C86         C  0.68734180  0.90652808  0.43183045     0.07900
C87         C  0.68691164  0.89986433  0.40980049     0.01700
H88         H  0.70011964  0.89044852  0.46017446     0.09300
H89         H  0.68117587  0.90854124  0.39598437     0.08400
N90         N  0.73206523  0.82126011  0.43580202    -0.35400
N91         N  0.73683795  0.80988880  0.41845943    -0.27600
C92         C  0.74796768  0.79494332  0.42528022    -0.02800
C93         C  0.75032200  0.79695859  0.44806718     0.05800
C94         C  0.74001074  0.81387260  0.45405978     0.03900
H95         H  0.75445724  0.78432098  0.41426809     0.09000
H96         H  0.73871115  0.82082390  0.47044830     0.07800
N97         N  0.12079689  0.56341948  0.91082549    -0.02800
C98         C  0.13012802  0.57834292  0.90051421    -0.00200
C99         C  0.12153787  0.59730334  0.89464382    -0.23100
C100        C  0.10633629  0.59383225  0.90149447    -0.23300
C101        C  0.10622120  0.57294852  0.91149419    -0.00300
H102        H  0.12594838  0.61223915  0.88678427     0.13500
H103        H  0.09665637  0.60575346  0.90036956     0.13500
N104        N  0.00766021  0.52696681  0.01834455    -0.02800
C105        C  0.00310040  0.51132897  0.03302569    -0.00200
C106        C  0.01523263  0.49621588  0.03738293    -0.23100
C107        C  0.02758116  0.50258423  0.02453967    -0.23300
C108        C  0.02257549  0.52141890  0.01287429    -0.00300
H109        H  0.01474568  0.48128773  0.04751534     0.13500
H110        H  0.03871283  0.49377347  0.02300771     0.13500
N111        N  0.38427864  0.86573104  0.30573476    -0.26600
N112        N  0.39565407  0.88089618  0.30532562    -0.34400
C113        C  0.39920787  0.88499124  0.28424934     0.01800
C114        C  0.38954342  0.87184270  0.27051241     0.07800
C115        C  0.38024820  0.85971868  0.28478382    -0.05300
H116        H  0.40826825  0.89664353  0.27931823     0.08500
H117        H  0.37159994  0.84694160  0.28040148     0.09700
Cu118      Cu  0.40621119  0.89447577  0.33351995     0.44200
Cu119      Cu  0.37575613  0.85375872  0.33532275     0.42000
Cu120      Cu  0.39445275  0.87595116  0.38737590     0.43900
N121        N  0.41635073  0.90606615  0.36285153    -0.34000
N122        N  0.41241075  0.89943146  0.38276980    -0.28200
C123        C  0.42173837  0.91020686  0.39798545    -0.04300
C124        C  0.43180206  0.92445230  0.38695969     0.07900
C125        C  0.42809882  0.92115302  0.36475433     0.01700
H126        H  0.42115602  0.90800280  0.41570945     0.09300
H127        H  0.43372357  0.92885043  0.35086267     0.08400
N128        N  0.37644609  0.85185633  0.38570001    -0.35400
N129        N  0.36997996  0.84382334  0.36701250    -0.27600
C130        C  0.35926597  0.82804108  0.37184411    -0.02800
C131        C  0.35876600  0.82610381  0.39460641     0.05800
C132        C  0.36985044  0.84143918  0.40287141     0.03900
H133        H  0.35228150  0.81865108  0.35960511     0.09000
H134        H  0.37317695  0.84443321  0.42008491     0.07800
N135        N  0.25588257  0.68525097  0.56032589    -0.26600
N136        N  0.24277559  0.67326688  0.56161192    -0.34400
C137        C  0.24090839  0.66749635  0.58290845     0.01800
C138        C  0.25344741  0.67637344  0.59563592     0.07800
C139        C  0.26269929  0.68741225  0.58065348    -0.05300
H140        H  0.23150000  0.65684416  0.58849682     0.08500
H141        H  0.27375841  0.69616825  0.58422256     0.09700
Cu142      Cu  0.22899995  0.66389909  0.53381113     0.44200
Cu143      Cu  0.26451938  0.69703748  0.53091711     0.42000
Cu144      Cu  0.24419798  0.68018663  0.48000501     0.43900
N145        N  0.21924702  0.65327386  0.50340059    -0.34000
N146        N  0.22504985  0.65845737  0.48400164    -0.28200
C147        C  0.21694205  0.64700837  0.46800148    -0.04300
C148        C  0.20544679  0.63410545  0.47777489     0.07900
C149        C  0.20718863  0.63868215  0.50018965     0.01700
H150        H  0.21934642  0.64784342  0.45059832     0.09300
H151        H  0.20062106  0.63117569  0.51331469     0.08400
N152        N  0.26411840  0.70107553  0.48117541    -0.35400
N153        N  0.27165144  0.70669644  0.49994341    -0.27600
C154        C  0.28423654  0.71952376  0.49549157    -0.02800
C155        C  0.28472799  0.72221478  0.47279710     0.05800
C156        C  0.27167772  0.71048401  0.46423899     0.03900
H157        H  0.29228528  0.72669385  0.50793703     0.09000
H158        H  0.26806300  0.70869969  0.44693874     0.07800
N159        N  0.39075691  0.85731335  0.06818916    -0.26600
N160        N  0.39894113  0.87618624  0.06916710    -0.34400
C161        C  0.40125270  0.88218178  0.09048608     0.01800
C162        C  0.39423647  0.86624687  0.10368226     0.07800
C163        C  0.38751784  0.85085797  0.08883259    -0.05300
H164        H  0.40779026  0.89696332  0.09596820     0.08500
H165        H  0.38056413  0.83621587  0.09256092     0.09700
Cu166      Cu  0.40668311  0.89245496  0.04132281     0.44200
Cu167      Cu  0.38486768  0.84107904  0.03876995     0.42000
Cu168      Cu  0.39878498  0.86580413  0.98785191     0.43900
N169        N  0.41408449  0.90516315  0.01156018    -0.34000
N170        N  0.41130579  0.89557755  0.99204377    -0.28200
C171        C  0.41807119  0.90800328  0.97637469    -0.04300
C172        C  0.42560736  0.92608165  0.98660785     0.07900
C173        C  0.42272826  0.92381189  0.00886563     0.01700
H174        H  0.41787072  0.90386824  0.95891115     0.09300
H175        H  0.42669720  0.93483910  0.02220170     0.08400
N176        N  0.38504406  0.83697632  0.98897771    -0.35400
N177        N  0.38012013  0.82804038  0.00750819    -0.27600
C178        C  0.37126383  0.80986165  0.00259108    -0.02800
C179        C  0.37030724  0.80732399  0.97979935     0.05800
C180        C  0.37935375  0.82472899  0.97174482     0.03900
H181        H  0.36609175  0.79920658  0.01486789     0.09000
H182        H  0.38142388  0.82848865  0.95459146     0.07800
N183        N  0.28823413  0.65404771  0.79355008    -0.26600
N184        N  0.27896183  0.63626571  0.79133265    -0.34400
C185        C  0.27353499  0.63483106  0.77020311     0.01800
C186        C  0.27961113  0.65261867  0.75844726     0.07800
C187        C  0.28900580  0.66438197  0.77382015    -0.05300
H188        H  0.26539244  0.62208115  0.76398471     0.08500
H189        H  0.29593890  0.67929004  0.77097044     0.09700
Cu190      Cu  0.27290438  0.61590418  0.81747012     0.44200
Cu191      Cu  0.29837703  0.66391835  0.82379040     0.42000
Cu192      Cu  0.28321505  0.63541977  0.87232763     0.43900
N193        N  0.26347444  0.60260640  0.84575071    -0.34000
N194        N  0.26648945  0.61065649  0.86582271    -0.28200
C195        C  0.25563879  0.60266961  0.87955340    -0.04300
C196        C  0.24525987  0.58875129  0.86756562     0.07900
C197        C  0.25084234  0.58898068  0.84623495     0.01700
H198        H  0.25440104  0.60863002  0.89629183     0.09300
H199        H  0.24518826  0.58168467  0.83156689     0.08400
N200        N  0.29970679  0.66113079  0.87381463    -0.35400
N201        N  0.30514044  0.67147889  0.85629518    -0.27600
C202        C  0.31479948  0.68822448  0.86315521    -0.02800
C203        C  0.31557734  0.68832955  0.88607054     0.05800
C204        C  0.30582409  0.67095199  0.89226223     0.03900
H205        H  0.32050214  0.69983173  0.85226110     0.09000
H206        H  0.30274747  0.66645891  0.90888240     0.07800
N207        N  0.13657713  0.51558409  0.40486242    -0.02800
C208        C  0.14384407  0.50062915  0.39160123    -0.00200
C209        C  0.13352791  0.48357443  0.38526621    -0.23100
C210        C  0.11945432  0.48801678  0.39510447    -0.23300
C211        C  0.12163327  0.50765654  0.40706127    -0.00300
H212        H  0.13613805  0.46901910  0.37529041     0.13500
H213        H  0.10883053  0.47784026  0.39395602     0.13500
N214        N  0.01579459  0.56842906  0.48946198    -0.02800
C215        C  0.00862574  0.58598070  0.49932276    -0.00200
C216        C  0.01929543  0.60308290  0.50374784    -0.23100
C217        C  0.03368726  0.59564949  0.49676327    -0.23300
C218        C  0.03129959  0.57421006  0.48835328    -0.00300
H219        H  0.01689920  0.61908554  0.51145872     0.13500
H220        H  0.04467474  0.60503247  0.49747520     0.13500
N221        N  0.86891175  0.36209399  0.15556114    -0.26600
N222        N  0.87734016  0.38070288  0.15792844    -0.34400
C223        C  0.88026946  0.38466164  0.17952851     0.01800
C224        C  0.87339816  0.36784007  0.19170467     0.07800
C225        C  0.86618930  0.35381369  0.17585002    -0.05300
H226        H  0.88715591  0.39877705  0.18588067     0.08500
H227        H  0.85923983  0.33893684  0.17872693     0.09700
Cu228      Cu  0.88485805  0.40052417  0.13233729     0.44200
Cu229      Cu  0.86174249  0.34921818  0.12454626     0.42000
Cu230      Cu  0.87204827  0.38488782  0.07801996     0.43900
N231        N  0.89213591  0.41711952  0.10451671    -0.34000
N232        N  0.88748742  0.41100900  0.08430437    -0.28200
C233        C  0.89539598  0.42304942  0.06954613    -0.04300
C234        C  0.90547629  0.43752696  0.08109870     0.07900
C235        C  0.90303843  0.43347115  0.10323519     0.01700
H236        H  0.89432549  0.42080921  0.05180607     0.09300
H237        H  0.90940750  0.44084579  0.11730589     0.08400
N238        N  0.85927115  0.35561470  0.07477753    -0.35400
N239        N  0.85607626  0.34199555  0.09129642    -0.27600
C240        C  0.84917567  0.32333254  0.08280763    -0.02800
C241        C  0.84780174  0.32561005  0.05998484     0.05800
C242        C  0.85434591  0.34623814  0.05551353     0.03900
H243        H  0.84567891  0.30902316  0.09245471     0.09000
H244        H  0.85618653  0.35340583  0.03939230     0.07800
N245        N  0.78309428  0.14506552  0.87979058    -0.26600
N246        N  0.77289447  0.12821510  0.87924415    -0.34400
C247        C  0.77196956  0.11983661  0.85850339     0.01800
C248        C  0.78198435  0.13218851  0.84540554     0.07800
C249        C  0.78883747  0.14791916  0.85960422    -0.05300
H250        H  0.76468214  0.10563008  0.85349757     0.08500
H251        H  0.79734315  0.16075973  0.85553824     0.09700
Cu252      Cu  0.76041664  0.11823825  0.90675705     0.44200
Cu253      Cu  0.78947644  0.16352698  0.90755066     0.42000
Cu254      Cu  0.77228360  0.14710672  0.95789211     0.43900
N255        N  0.74878294  0.11491586  0.93647538    -0.34000
N256        N  0.75325900  0.12542056  0.95495812    -0.28200
C257        C  0.74274578  0.12126938  0.97060708    -0.04300
C258        C  0.73092309  0.10760800  0.96158737     0.07900
C259        C  0.73525011  0.10372057  0.93997706     0.01700
H260        H  0.74359902  0.12803749  0.98721206     0.09300
H261        H  0.72866785  0.09420905  0.92742277     0.08400
N262        N  0.78900206  0.17223881  0.95614519    -0.35400
N263        N  0.79528811  0.17854893  0.93746544    -0.27600
C264        C  0.80473522  0.19640240  0.94140227    -0.02800
C265        C  0.80413034  0.20170412  0.96362105     0.05800
C266        C  0.79415079  0.18595944  0.97250601     0.03900
H267        H  0.81090125  0.20548798  0.92886764     0.09000
H268        H  0.79045555  0.18502489  0.98941482     0.07800
N269        N  0.89289867  0.36527476  0.39405776    -0.26600
N270        N  0.90328406  0.38096929  0.38936964    -0.34400
C271        C  0.90282725  0.38443263  0.36739136     0.01800
C272        C  0.89146395  0.37039701  0.35769182     0.07800
C273        C  0.88542105  0.35840969  0.37515690    -0.05300
H274        H  0.91025178  0.39635070  0.35904708     0.08500
H275        H  0.87661130  0.34524817  0.37416545     0.09700
Cu276      Cu  0.91743699  0.39672341  0.41343898     0.44200
Cu277      Cu  0.89035406  0.35394761  0.42616971     0.42000
Cu278      Cu  0.91413619  0.38075826  0.47138438     0.43900
N279        N  0.93016412  0.41161839  0.43950612    -0.34000
N280        N  0.92923380  0.40599674  0.46056134    -0.28200
C281        C  0.93918209  0.41921853  0.47276403    -0.04300
C282        C  0.94660389  0.43409716  0.45869194     0.07900
C283        C  0.94054025  0.42853508  0.43776446     0.01700
H284        H  0.94098526  0.41772713  0.49045399     0.09300
H285        H  0.94325145  0.43644839  0.42227052     0.08400
N286        N  0.89809128  0.35451848  0.47579190    -0.35400
N287        N  0.88982534  0.34496810  0.45929748    -0.27600
C288        C  0.88086608  0.32852789  0.46738028    -0.02800
C289        C  0.88344782  0.32745242  0.49011125     0.05800
C290        C  0.89445187  0.34432509  0.49488051     0.03900
H291        H  0.87308664  0.31792152  0.45727709     0.09000
H292        H  0.89928222  0.34918488  0.51098982     0.07800
N293        N  0.81003896  0.13928023  0.64864652    -0.26600
N294        N  0.80119502  0.12111839  0.64596807    -0.34400
C295        C  0.79713649  0.11353532  0.66590616     0.01800
C296        C  0.80386873  0.12744250  0.68209457     0.07800
C297        C  0.81193877  0.14362329  0.67042668    -0.05300
H298        H  0.78894892  0.09986481  0.66822224     0.08500
H299        H  0.81824215  0.15806379  0.67721931     0.09700
Cu300      Cu  0.79273426  0.10957967  0.61549482     0.44200
Cu301      Cu  0.81726330  0.15885686  0.62245134     0.42000
Cu302      Cu  0.79730616  0.14671702  0.56924505     0.43900
N303        N  0.78015959  0.10600677  0.58572158    -0.34000
N304        N  0.78106902  0.12034836  0.56915147    -0.28200
C305        C  0.76914822  0.11609572  0.55429583    -0.04300
C306        C  0.76043407  0.09812783  0.56189855     0.07900
C307        C  0.76783808  0.09209528  0.58176024     0.01700
H308        H  0.76646179  0.12614393  0.53976331     0.09300
H309        H  0.76366422  0.07994884  0.59346010     0.08400
N310        N  0.81439476  0.17167709  0.57413079    -0.35400
N311        N  0.82156795  0.17616250  0.59346462    -0.27600
C312        C  0.83158225  0.19349268  0.59102538    -0.02800
C313        C  0.83085261  0.20013642  0.56905499     0.05800
C314        C  0.81973690  0.18597892  0.55889702     0.03900
H315        H  0.83885983  0.20075793  0.60431781     0.09000
H316        H  0.81545941  0.18641942  0.54179304     0.07800
N317        N  0.61800045  0.03737850  0.00872172    -0.02800
C318        C  0.60240380  0.04052558  0.01243478    -0.00200
C319        C  0.60003726  0.06181480  0.02091832    -0.23100
C320        C  0.61461900  0.07206454  0.02243317    -0.23300
C321        C  0.62544767  0.05662325  0.01509530    -0.00300
H322        H  0.58873893  0.06982474  0.02355740     0.13500
H323        H  0.61692055  0.08940492  0.02687051     0.13500
N324        N  0.49067117  0.04876875  0.92110615    -0.02800
C325        C  0.48477853  0.06413363  0.90645408    -0.00200
C326        C  0.49661818  0.07871652  0.90048907    -0.23100
C327        C  0.51022233  0.07207865  0.91189744    -0.23300
C328        C  0.50628254  0.05360659  0.92438095    -0.00300
H329        H  0.49535880  0.09320083  0.88978362     0.13500
H330        H  0.52167223  0.08024156  0.91163804     0.13500
N331        N  0.22757780  0.36075975  0.03261319    -0.26600
N332        N  0.21653872  0.37608597  0.03551851    -0.34400
C333        C  0.21689107  0.38231798  0.05691132     0.01800
C334        C  0.22871295  0.37023268  0.06807199     0.07800
C335        C  0.23530339  0.35682885  0.05206463    -0.05300
H336        H  0.20951365  0.39538602  0.06361027     0.08500
H337        H  0.24517709  0.34529937  0.05431381     0.09700
Cu338      Cu  0.20253072  0.38876401  0.00967372     0.44200
Cu339      Cu  0.23195328  0.34731098  0.00190453     0.42000
Cu340      Cu  0.20973537  0.36956662  0.95350968     0.43900
N341        N  0.19089050  0.40121352  0.98158697    -0.34000
N342        N  0.19355234  0.39480078  0.96108769    -0.28200
C343        C  0.18464846  0.40755929  0.94701780    -0.04300
C344        C  0.17583466  0.42244424  0.95932708     0.07900
C345        C  0.18024382  0.41797695  0.98113667     0.01700
H346        H  0.18475122  0.40632733  0.92917611     0.09300
H347        H  0.17655777  0.42693203  0.99565782     0.08400
N348        N  0.22708249  0.34456393  0.95206801    -0.35400
N349        N  0.23503613  0.33685858  0.96972557    -0.27600
C350        C  0.24529932  0.32106584  0.96347248    -0.02800
C351        C  0.24390091  0.31851485  0.94072083     0.05800
C352        C  0.23211631  0.33365529  0.93405908     0.03900
H353        H  0.25323712  0.31206899  0.97480910     0.09000
H354        H  0.22720260  0.33618880  0.91746287     0.07800
N355        N  0.32035850  0.14571361  0.77032770    -0.26600
N356        N  0.33235801  0.13142717  0.77071256    -0.34400
C357        C  0.33612353  0.12661102  0.74982778     0.01800
C358        C  0.32614585  0.13861361  0.73554508     0.07800
C359        C  0.31620335  0.15043045  0.74913452    -0.05300
H360        H  0.34580651  0.11578453  0.74538202     0.08500
H361        H  0.30673243  0.16174692  0.74408428     0.09700
Cu362      Cu  0.34416769  0.12062263  0.79935611     0.44200
Cu363      Cu  0.31103676  0.15943537  0.79861879     0.42000
Cu364      Cu  0.33171943  0.14465333  0.85043227     0.43900
N365        N  0.35591836  0.11523699  0.82952832    -0.34000
N366        N  0.35146235  0.12423459  0.84830507    -0.28200
C367        C  0.36232402  0.11934415  0.86443273    -0.04300
C368        C  0.37423029  0.10669947  0.85529352     0.07900
C369        C  0.36968121  0.10427177  0.83318558     0.01700
H370        H  0.36173209  0.12500538  0.88137267     0.09300
H371        H  0.37629486  0.09609777  0.82045790     0.08400
N372        N  0.31340297  0.16774435  0.84785654    -0.35400
N373        N  0.30583693  0.17316232  0.82907901    -0.27600
C374        C  0.29574416  0.19010660  0.83291754    -0.02800
C375        C  0.29702410  0.19563164  0.85520065     0.05800
C376        C  0.30836038  0.18110070  0.86409314     0.03900
H377        H  0.28875283  0.19863376  0.82015811     0.09000
H378        H  0.31305167  0.18079517  0.88100673     0.07800
N379        N  0.27359734  0.38576908  0.26167136    -0.26600
N380        N  0.26762187  0.40627158  0.26097808    -0.34400
C381        C  0.26317722  0.41121304  0.23997193     0.01800
C382        C  0.26660863  0.39298619  0.22668910     0.07800
C383        C  0.27316590  0.37714964  0.24109976    -0.05300
H384        H  0.25708966  0.42653141  0.23500369     0.08500
H385        H  0.27694598  0.36029038  0.23704163     0.09700
Cu386      Cu  0.26465070  0.42577115  0.28886093     0.44200
Cu387      Cu  0.28093167  0.36991865  0.29076709     0.42000
Cu388      Cu  0.28141402  0.40394854  0.34054619     0.43900
N389        N  0.26179059  0.44086816  0.31929108    -0.34000
N390        N  0.26823141  0.43330783  0.33809169    -0.28200
C391        C  0.26212999  0.44472770  0.35500378    -0.04300
C392        C  0.25101871  0.45987851  0.34647731     0.07900
C393        C  0.25137129  0.45717003  0.32374619     0.01700
H394        H  0.26467818  0.44090751  0.37222698     0.09300
H395        H  0.24340627  0.46477541  0.31148631     0.08400
N396        N  0.28887042  0.37075028  0.33981489    -0.35400
N397        N  0.28795866  0.35807575  0.32181634    -0.27600
C398        C  0.29210867  0.33692753  0.32721681    -0.02800
C399        C  0.29590684  0.33631714  0.34965507     0.05800
C400        C  0.29383173  0.35804621  0.35710395     0.03900
H401        H  0.29228726  0.32303038  0.31568529     0.09000
H402        H  0.29523780  0.36399716  0.37401646     0.07800
N403        N  0.33335647  0.14701905  0.53351655    -0.26600
N404        N  0.34134387  0.12799460  0.53562328    -0.34400
C405        C  0.34197614  0.12195480  0.55704050     0.01800
C406        C  0.33394187  0.13783939  0.56907785     0.07800
C407        C  0.32869229  0.15356023  0.55358225    -0.05300
H408        H  0.34812471  0.10721833  0.56345521     0.08500
H409        H  0.32252046  0.16911845  0.55671103     0.09700
Cu410      Cu  0.35231975  0.11203506  0.50982910     0.44200
Cu411      Cu  0.33015463  0.16402659  0.50373386     0.42000
Cu412      Cu  0.34892983  0.13926102  0.45660733     0.43900
N413        N  0.36465376  0.10174371  0.48258798    -0.34000
N414        N  0.36321813  0.11154471  0.46303130    -0.28200
C415        C  0.37433069  0.10330859  0.44988008    -0.04300
C416        C  0.38334742  0.08762488  0.46171061     0.07900
C417        C  0.37678877  0.08709824  0.48242195     0.01700
H418        H  0.37647120  0.10962299  0.43348254     0.09300
H419        H  0.38144356  0.07846106  0.49698207     0.08400
N420        N  0.33694252  0.16965593  0.45541479    -0.35400
N421        N  0.33000799  0.17863739  0.47256624    -0.27600
C422        C  0.32384331  0.19865080  0.46660617    -0.02800
C423        C  0.32728252  0.20273496  0.44468299     0.05800
C424        C  0.33548921  0.18379767  0.43814009     0.03900
H425        H  0.31726631  0.20925861  0.47751664     0.09000
H426        H  0.34040654  0.18072488  0.42215519     0.07800
N427        N  0.64096626  0.04262743  0.50509359    -0.02800
C428        C  0.64825538  0.05500957  0.52145627    -0.00200
C429        C  0.63766412  0.07008597  0.53014122    -0.23100
C430        C  0.62340745  0.06676983  0.51902316    -0.23300
C431        C  0.62564772  0.04981794  0.50377259    -0.00300
H432        H  0.64018772  0.08289805  0.54248725     0.13500
H433        H  0.61262949  0.07622776  0.52132574     0.13500
N434        N  0.50750041  0.04168133  0.43456784    -0.02800
C435        C  0.52213658  0.05076423  0.43308192    -0.00200
C436        C  0.52135544  0.07378152  0.43628063    -0.23100
C437        C  0.50575362  0.07895738  0.43979346    -0.23300
C438        C  0.49758367  0.05893933  0.43859855    -0.00300
H439        H  0.53125063  0.08533472  0.43748047     0.13500
H440        H  0.50095851  0.09538391  0.44330359     0.13500
C441        C  0.55622360  0.02422292  0.46320387    -0.01300
C442        C  0.56894628  0.03184304  0.45056806     0.07300
C443        C  0.56563920  0.03993076  0.42906561    -0.07300
C444        C  0.54998551  0.04390080  0.42160260     0.04700
C445        C  0.53734554  0.03857915  0.43530323    -0.14500
C446        C  0.54056604  0.02723781  0.45524709    -0.07800
C447        C  0.58507467  0.03546536  0.46093953     0.05700
C448        C  0.59331108  0.01755663  0.47123076    -0.09000
C449        C  0.60705543  0.02137524  0.48456084     0.00700
C450        C  0.61306599  0.04339988  0.48708757     0.00500
C451        C  0.60540372  0.06098358  0.47555146    -0.12500
C452        C  0.59150361  0.05733835  0.46283329     0.01000
C453        C  0.61377564  0.00272233  0.49683117     0.40300
C454        C  0.58347837  0.07672874  0.45339810     0.36900
C455        C  0.55873382  0.01588594  0.48547425     0.36700
C456        C  0.54725815  0.05545271  0.40082594     0.37400
N457        N  0.61892585  0.98750570  0.50656351    -0.43400
N458        N  0.57708392  0.09228417  0.44586408    -0.43800
N459        N  0.54512884  0.06479245  0.38420483    -0.41200
N460        N  0.56069114  0.00925000  0.50335167    -0.42600
H461        H  0.53088364  0.02330704  0.46592826     0.13500
H462        H  0.57532553  0.04531140  0.41901671     0.10000
H463        H  0.58848837  0.00073327  0.46984663     0.11100
H464        H  0.60989848  0.07796153  0.47740293     0.16900
C465        C  0.42419442  0.08511233  0.43815876    -0.01300
C466        C  0.43029638  0.06485795  0.44701059     0.07300
C467        C  0.42053062  0.05121108  0.45959412    -0.07300
C468        C  0.40493723  0.05771863  0.46380738     0.04700
C469        C  0.39900124  0.07845735  0.45564288    -0.14500
C470        C  0.40870313  0.09166191  0.44244053    -0.07800
C471        C  0.44726893  0.05899357  0.44500517     0.05700
C472        C  0.45728420  0.06020135  0.46401866    -0.09000
C473        C  0.47375620  0.05902663  0.46235273     0.00700
C474        C  0.48034846  0.05691818  0.44136912     0.00500
C475        C  0.47035738  0.05381054  0.42259900    -0.12500
C476        C  0.45386395  0.05464611  0.42429483     0.01000
C477        C  0.48367469  0.05982346  0.48232208     0.40300
C478        C  0.44393966  0.05139429  0.40459423     0.36900
C479        C  0.43389167  0.10011841  0.42565302     0.36700
C480        C  0.39526636  0.04260794  0.47618325     0.37400
N481        N  0.49161792  0.06010645  0.49834355    -0.43400
N482        N  0.43599422  0.04870721  0.38879790    -0.43800
N483        N  0.38754623  0.03039587  0.48605128    -0.41200
N484        N  0.44165721  0.11209864  0.41559348    -0.42600
H485        H  0.40448693  0.10771072  0.43621365     0.13500
H486        H  0.42518080  0.03558808  0.46634275     0.10000
H487        H  0.45224811  0.06296403  0.48006468     0.11100
H488        H  0.47546112  0.05141267  0.40654281     0.16900
C489        C  0.31682208  0.23801695  0.39401691    -0.01300
C490        C  0.31505887  0.25967673  0.40310727     0.07300
C491        C  0.31751835  0.26266052  0.42600912    -0.07300
C492        C  0.32175670  0.24461204  0.43983463     0.04700
C493        C  0.32313327  0.22273395  0.43085428    -0.14500
C494        C  0.32072298  0.21984702  0.40786348    -0.07800
C495        C  0.31046609  0.27937247  0.38911416     0.05700
C496        C  0.29619984  0.27864998  0.37639590    -0.09000
C497        C  0.29135741  0.29688764  0.36320560     0.00700
C498        C  0.30066912  0.31654980  0.36303996     0.00500
C499        C  0.31480652  0.31745286  0.37594764    -0.12500
C500        C  0.31987968  0.29897833  0.38866780     0.01000
C501        C  0.27651045  0.29530823  0.35063851     0.40300
C502        C  0.33503472  0.30027510  0.40049742     0.36900
C503        C  0.31508254  0.23409714  0.37046061     0.36700
C504        C  0.32539829  0.24947986  0.46286629     0.37400
N505        N  0.26461391  0.29403506  0.34056076    -0.43400
N506        N  0.34720037  0.30127696  0.40993068    -0.43800
N507        N  0.32836930  0.25361620  0.48127570    -0.41200
N508        N  0.31368552  0.23100174  0.35157805    -0.42600
H509        H  0.32180346  0.20328253  0.40059702     0.13500
H510        H  0.31622739  0.27927618  0.43312158     0.10000
H511        H  0.28877109  0.26383472  0.37689953     0.11100
H512        H  0.32206351  0.33245106  0.37570199     0.16900
C513        C  0.34489186  0.13121971  0.62999616    -0.01300
C514        C  0.33092714  0.13825399  0.64015599     0.07300
C515        C  0.31807710  0.14593205  0.62685168    -0.07300
C516        C  0.31878964  0.14617854  0.60373069     0.04700
C517        C  0.33260532  0.13854881  0.59349162    -0.14500
C518        C  0.34554314  0.13117017  0.60688420    -0.07800
C519        C  0.32944267  0.13801574  0.66459168     0.05700
C520        C  0.32639396  0.15825521  0.67557878    -0.09000
C521        C  0.32492233  0.15888220  0.69858587     0.00700
C522        C  0.32665577  0.13891269  0.71106251     0.00500
C523        C  0.32949382  0.11863842  0.69998800    -0.12500
C524        C  0.33064223  0.11796761  0.67695990     0.01000
C525        C  0.32230139  0.18037594  0.70891616     0.40300
C526        C  0.33255389  0.09642771  0.66636767     0.36900
C527        C  0.35885403  0.12454704  0.64289447     0.36700
C528        C  0.30490290  0.15344547  0.59104467     0.37400
N529        N  0.32015472  0.19765152  0.71708897    -0.43400
N530        N  0.33409682  0.07916005  0.65789614    -0.43800
N531        N  0.29372409  0.15932240  0.58099696    -0.41200
N532        N  0.37003577  0.11912917  0.65319898    -0.42600
H533        H  0.35632519  0.12570056  0.59929989     0.13500
H534        H  0.30735054  0.15143642  0.63457752     0.10000
H535        H  0.32534439  0.17370556  0.66612094     0.11100
H536        H  0.33058185  0.10314285  0.70935845     0.16900
C537        C  0.25638326  0.37527104  0.11850806    -0.01300
C538        C  0.24572320  0.37887446  0.13552728     0.07300
C539        C  0.22937530  0.37893929  0.13055332    -0.07300
C540        C  0.22354045  0.37582251  0.10876691     0.04700
C541        C  0.23422019  0.37271011  0.09152022    -0.14500
C542        C  0.25059456  0.37218621  0.09671250    -0.07800
C543        C  0.25142548  0.38224473  0.15872588     0.05700
C544        C  0.25674974  0.40353847  0.16549185    -0.09000
C545        C  0.26213970  0.40738433  0.18737669     0.00700
C546        C  0.26203823  0.38967538  0.20296255     0.00500
C547        C  0.25704824  0.36823542  0.19586646    -0.12500
C548        C  0.25179847  0.36441957  0.17397085     0.01000
C549        C  0.26832539  0.42933945  0.19302278     0.40300
C550        C  0.24697976  0.34204872  0.16741932     0.36900
C551        C  0.27327958  0.37447422  0.12316412     0.36700
C552        C  0.20657655  0.37485164  0.10478549     0.37400
N553        N  0.27334162  0.44694365  0.19740808    -0.43400
N554        N  0.24318401  0.32409532  0.16214387    -0.43800
N555        N  0.19297938  0.37397019  0.10161512    -0.41200
N556        N  0.28680409  0.37379612  0.12704172    -0.42600
H557        H  0.25891941  0.36972082  0.08367125     0.13500
H558        H  0.22117153  0.38130189  0.14377378     0.10000
H559        H  0.25676552  0.41715254  0.15356811     0.11100
H560        H  0.25694007  0.35442591  0.20754946     0.16900
C561        C  0.29239210  0.24490823  0.89401227    -0.01300
C562        C  0.27642059  0.25104014  0.88994294     0.07300
C563        C  0.26729692  0.23938750  0.87383053    -0.07300
C564        C  0.27372885  0.22137988  0.86218964     0.04700
C565        C  0.28963504  0.21482142  0.86663523    -0.14500
C566        C  0.29881332  0.22684900  0.88250887    -0.07800
C567        C  0.26869136  0.26866224  0.90316568     0.05700
C568        C  0.26419888  0.28897979  0.89307998    -0.09000
C569        C  0.25640412  0.30569093  0.90496159     0.00700
C570        C  0.25254493  0.30184859  0.92725009     0.00500
C571        C  0.25726140  0.28148210  0.93726752    -0.12500
C572        C  0.26533887  0.26506787  0.92553862     0.01000
C573        C  0.25332929  0.32692002  0.89416852     0.40300
C574        C  0.26987846  0.24449831  0.93671129     0.36900
C575        C  0.30243569  0.25703028  0.90977064     0.36700
C576        C  0.26347808  0.20927887  0.84668853     0.37400
N577        N  0.25102260  0.34395516  0.88544303    -0.43400
N578        N  0.27365049  0.22807649  0.94565879    -0.43800
N579        N  0.25520940  0.19961872  0.83429101    -0.41200
N580        N  0.31050520  0.26674765  0.92237270    -0.42600
H581        H  0.31111465  0.22228705  0.88581177     0.13500
H582        H  0.25497107  0.24401074  0.87078534     0.10000
H583        H  0.26700031  0.29189003  0.87592481     0.11100
H584        H  0.25444389  0.27812874  0.95432227     0.16900
C585        C  0.40970465  0.06976535  0.86836793    -0.01300
C586        C  0.41931193  0.08377727  0.88204230     0.07300
C587        C  0.41361029  0.10495796  0.88813276    -0.07300
C588        C  0.39873338  0.11256752  0.88025130     0.04700
C589        C  0.38931960  0.09880766  0.86590961    -0.14500
C590        C  0.39489985  0.07738511  0.86034489    -0.07800
C591        C  0.43581209  0.07736840  0.88865249     0.05700
C592        C  0.44695363  0.07517420  0.87211604    -0.09000
C593        C  0.46283089  0.07020531  0.87752728     0.00700
C594        C  0.46778839  0.06714228  0.89988472     0.00500
C595        C  0.45657372  0.06907469  0.91641010    -0.12500
C596        C  0.44069622  0.07421398  0.91098278     0.01000
C597        C  0.47379279  0.06840876  0.85981352     0.40300
C598        C  0.42965478  0.07634086  0.92855969     0.36900
C599        C  0.41482174  0.04749475  0.86239961     0.36700
C600        C  0.39399027  0.13508876  0.88594132     0.37400
N601        N  0.48256791  0.06708910  0.84559159    -0.43400
N602        N  0.42079343  0.07812629  0.94262863    -0.43800
N603        N  0.39023978  0.15316114  0.89051246    -0.41200
N604        N  0.41895812  0.02963880  0.85769859    -0.42600
H605        H  0.38770782  0.06661356  0.84953867     0.13500
H606        H  0.42105638  0.11587670  0.89844880     0.10000
H607        H  0.44326278  0.07775782  0.85492723     0.11100
H608        H  0.46030746  0.06741667  0.93366026     0.16900
C609        C  0.57422899  0.02564330  0.96599378    -0.01300
C610        C  0.55999776  0.02347125  0.97740427     0.07300
C611        C  0.56081704  0.02071118  0.00048781    -0.07300
C612        C  0.57529225  0.02307441  0.01241656     0.04700
C613        C  0.58920757  0.02809194  0.00117709    -0.14500
C614        C  0.58872210  0.02769054  0.97794283    -0.07800
C615        C  0.54444289  0.02909817  0.96633976     0.05700
C616        C  0.53750071  0.01471079  0.95027092    -0.09000
C617        C  0.52409095  0.02153611  0.93744660     0.00700
C618        C  0.51756591  0.04308178  0.94063167     0.00500
C619        C  0.52406016  0.05689168  0.95743575    -0.12500
C620        C  0.53732858  0.05013281  0.97023943     0.01000
C621        C  0.51797814  0.00683868  0.92016543     0.40300
C622        C  0.54415590  0.06583844  0.98615672     0.36900
C623        C  0.57407806  0.02856245  0.94227316     0.36700
C624        C  0.57542774  0.02202381  0.03627786     0.37400
N625        N  0.51313103  0.99494420  0.90634910    -0.43400
N626        N  0.54967042  0.07839578  0.99888472    -0.43800
N627        N  0.57554439  0.02108487  0.05540764    -0.41200
N628        N  0.57399789  0.03097854  0.92327258    -0.42600
H629        H  0.59934304  0.03164909  0.96916519     0.13500
H630        H  0.54995744  0.01873580  0.00933389     0.10000
H631        H  0.54294564  0.99859448  0.94713910     0.11100
H632        H  0.51922478  0.07356031  0.95977615     0.16900
C633        C  0.72711602  0.05875964  0.54425069    -0.01300
C634        C  0.71418175  0.07361936  0.54181891     0.07300
C635        C  0.71661139  0.09668379  0.54515081    -0.07300
C636        C  0.73169209  0.10508556  0.55100254     0.04700
C637        C  0.74465590  0.09020909  0.55373331    -0.14500
C638        C  0.74220033  0.06710198  0.55037271    -0.07800
C639        C  0.69785662  0.06554939  0.53651130     0.05700
C640        C  0.68734292  0.06314694  0.55375193    -0.09000
C641        C  0.67133795  0.05807522  0.54927675     0.00700
C642        C  0.66557143  0.05556365  0.52711499     0.00500
C643        C  0.67634029  0.05687566  0.50995929    -0.12500
C644        C  0.69238790  0.06178157  0.51451942     0.01000
C645        C  0.66106221  0.05584332  0.56774831     0.40300
C646        C  0.70290498  0.06394325  0.49634880     0.36900
C647        C  0.72506463  0.03492591  0.54087399     0.36700
C648        C  0.73334237  0.12883269  0.55537984     0.37400
N649        N  0.65285065  0.05413177  0.58257976    -0.43400
N650        N  0.71138972  0.06567978  0.48183527    -0.43800
N651        N  0.73467801  0.14784689  0.55896927    -0.41200
N652        N  0.72334908  0.01583875  0.53808645    -0.42600
H653        H  0.75207192  0.05556420  0.55266140     0.13500
H654        H  0.70662018  0.10810718  0.54347800     0.10000
H655        H  0.69158572  0.06579761  0.57069918     0.11100
H656        H  0.67209532  0.05534912  0.49289748     0.16900
C657        C  0.85277587  0.28715334  0.51094822    -0.01300
C658        C  0.86072091  0.27709020  0.52926322     0.07300
C659        C  0.87575475  0.28508531  0.53614170    -0.07300
C660        C  0.88323994  0.30216504  0.52435902     0.04700
C661        C  0.87561548  0.31143275  0.50518420    -0.14500
C662        C  0.86021147  0.30406943  0.49914469    -0.07800
C663        C  0.85387721  0.25723347  0.54031662     0.05700
C664        C  0.85223782  0.23716365  0.52827338    -0.09000
C665        C  0.84503121  0.21830285  0.53735326     0.00700
C666        C  0.83931178  0.21928760  0.55904462     0.00500
C667        C  0.84143034  0.23922224  0.57134020    -0.12500
C668        C  0.84854004  0.25815534  0.56211873     0.01000
C669        C  0.84411297  0.19805216  0.52420144     0.40300
C670        C  0.84957898  0.27862970  0.57490598     0.36900
C671        C  0.83695469  0.28031952  0.50392347     0.36700
C672        C  0.89900314  0.30881313  0.53174725     0.37400
N673        N  0.84342396  0.18188698  0.51354861    -0.43400
N674        N  0.85035450  0.29508862  0.58509802    -0.43800
N675        N  0.91161968  0.31404678  0.53790649    -0.41200
N676        N  0.82426556  0.27484920  0.49835749    -0.42600
H677        H  0.85395226  0.31137362  0.48493613     0.13500
H678        H  0.88186938  0.27742322  0.55029500     0.10000
H679        H  0.85652563  0.23632061  0.51156763     0.11100
H680        H  0.83705545  0.24027651  0.58797575     0.16900
C681        C  0.69660778  0.06996345  0.97550631    -0.01300
C682        C  0.68777540  0.08377324  0.98940262     0.07300
C683        C  0.69341530  0.10524913  0.99496684    -0.07300
C684        C  0.70757151  0.11329458  0.98650994     0.04700
C685        C  0.71634329  0.09961902  0.97213845    -0.14500
C686        C  0.71073408  0.07795084  0.96695926    -0.07800
C687        C  0.67184985  0.07696186  0.99639496     0.05700
C688        C  0.67038022  0.06181190  0.01397354    -0.09000
C689        C  0.65536389  0.05484657  0.02049638     0.00700
C690        C  0.64165479  0.06292237  0.00909370     0.00500
C691        C  0.64318868  0.07816195  0.99164837    -0.12500
C692        C  0.65811032  0.08520617  0.98523382     0.01000
C693        C  0.65429877  0.04014807  0.03932444     0.40300
C694        C  0.65907654  0.10066924  0.96695084     0.36900
C695        C  0.69104629  0.04786746  0.96916848     0.36700
C696        C  0.71212987  0.13611113  0.99177251     0.37400
N697        N  0.65350734  0.02847609  0.05453107    -0.43400
N698        N  0.65987763  0.11306781  0.95231374    -0.43800
N699        N  0.71566651  0.15442515  0.99607909    -0.41200
N700        N  0.68650658  0.03018589  0.96412992    -0.42600
H701        H  0.71733671  0.06727397  0.95604991     0.13500
H702        H  0.68646160  0.11598759  0.00539065     0.10000
H703        H  0.68096693  0.05557320  0.02265824     0.11100
H704        H  0.63263749  0.08447492  0.98290289     0.16900
C705        C  0.80395907  0.13428121  0.79198882    -0.01300
C706        C  0.79203612  0.12860912  0.77604825     0.07300
C707        C  0.77686602  0.12296399  0.78297304    -0.07300
C708        C  0.77330993  0.12354239  0.80545988     0.04700
C709        C  0.78516486  0.12971369  0.82148984    -0.14500
C710        C  0.80045518  0.13484498  0.81442919    -0.07800
C711        C  0.79513967  0.12853155  0.75204622     0.05700
C712        C  0.79553019  0.10797688  0.74078327    -0.09000
C713        C  0.79861265  0.10709084  0.71816657     0.00700
C714        C  0.80112089  0.12719127  0.70628987     0.00500
C715        C  0.80071929  0.14776765  0.71774374    -0.12500
C716        C  0.79777024  0.14857171  0.74037916     0.01000
C717        C  0.79978075  0.08523187  0.70800323     0.40300
C718        C  0.79722681  0.17019137  0.75119618     0.36900
C719        C  0.81991367  0.13936199  0.78570285     0.36700
C720        C  0.75721310  0.11889720  0.81131466     0.37400
N721        N  0.80071289  0.06761331  0.70003865    -0.43400
N722        N  0.79685107  0.18751932  0.75986169    -0.43800
N723        N  0.74427958  0.11516997  0.81590168    -0.41200
N724        N  0.83268466  0.14344297  0.78062096    -0.42600
H725        H  0.80974973  0.13928337  0.82647173     0.13500
H726        H  0.76769378  0.11858681  0.77070664     0.10000
H727        H  0.79366845  0.09255568  0.74980296     0.11100
H728        H  0.80241667  0.16335074  0.70897332     0.16900
C729        C  0.87757230  0.38601236  0.25171306    -0.01300
C730        C  0.87794685  0.36545630  0.26313668     0.07300
C731        C  0.87600333  0.34536984  0.25118915    -0.07300
C732        C  0.87418803  0.34553887  0.22795735     0.04700
C733        C  0.87395365  0.36621820  0.21637368    -0.14500
C734        C  0.87538856  0.38627460  0.22866984    -0.07800
C735        C  0.88149942  0.36480750  0.28737396     0.05700
C736        C  0.86900807  0.36352249  0.30200611    -0.09000
C737        C  0.87191325  0.36526017  0.32498808     0.00700
C738        C  0.88761945  0.36791958  0.33361705     0.00500
C739        C  0.90007614  0.36897145  0.31884539    -0.12500
C740        C  0.89713324  0.36754830  0.29594478     0.01000
C741        C  0.85848538  0.36607704  0.33910064     0.40300
C742        C  0.91029375  0.36958506  0.28146384     0.36900
C743        C  0.88000401  0.40704207  0.26329207     0.36700
C744        C  0.87378592  0.32422024  0.21656856     0.37400
N745        N  0.84768245  0.36697787  0.35033343    -0.43400
N746        N  0.92080107  0.37137224  0.26981361    -0.43800
N747        N  0.87357303  0.30704535  0.20756480    -0.41200
N748        N  0.88212264  0.42381012  0.27264194    -0.42600
H749        H  0.87510570  0.40229983  0.22027926     0.13500
H750        H  0.87653715  0.32953671  0.25995483     0.10000
H751        H  0.85694522  0.36202183  0.29541341     0.11100
H752        H  0.91215323  0.37106303  0.32518557     0.16900
C753        C  0.83456876  0.24396671  0.98440405    -0.01300
C754        C  0.82557169  0.25708831  0.99883608     0.07300
C755        C  0.80928068  0.25298577  0.00022349    -0.07300
C756        C  0.80202214  0.23545248  0.98833454     0.04700
C757        C  0.81118993  0.22139763  0.97501185    -0.14500
C758        C  0.82733215  0.22616295  0.97268251    -0.07800
C759        C  0.83269317  0.27491596  0.01315663     0.05700
C760        C  0.82708749  0.29698421  0.01070648    -0.09000
C761        C  0.83194871  0.31383331  0.02562496     0.00700
C762        C  0.84245228  0.30855176  0.04360296     0.00500
C763        C  0.84821858  0.28656021  0.04586619    -0.12500
C764        C  0.84353736  0.26979682  0.03076348     0.01000
C765        C  0.82533137  0.33604705  0.02274180     0.40300
C766        C  0.84965143  0.24736449  0.03410270     0.36900
C767        C  0.85110977  0.24864266  0.98116648     0.36700
C768        C  0.78504313  0.23285149  0.98933588     0.37400
N769        N  0.81995669  0.35379646  0.02033188    -0.43400
N770        N  0.85468521  0.22944189  0.03667435    -0.43800
N771        N  0.77142377  0.23083011  0.98992241    -0.41200
N772        N  0.86436633  0.25239635  0.97855126    -0.42600
H773        H  0.83433323  0.21573830  0.96201181     0.13500
H774        H  0.80223589  0.26341369  0.01084516     0.10000
H775        H  0.81859397  0.30091954  0.99733272     0.11100
H776        H  0.85646519  0.28247052  0.05948895     0.16900
C777        C  0.00421411  0.50766548  0.48784309    -0.01300
C778        C  0.99041729  0.50833028  0.47395768     0.07300
C779        C  0.98617093  0.52847853  0.46334429    -0.07300
C780        C  0.99500398  0.54807159  0.46725635     0.04700
C781        C  0.00819385  0.54780371  0.48230636    -0.14500
C782        C  0.01303816  0.52733438  0.49183189    -0.07800
C783        C  0.98004146  0.48836601  0.47054551     0.05700
C784        C  0.97007162  0.48182066  0.48744387    -0.09000
C785        C  0.95923600  0.46408958  0.48429301     0.00700
C786        C  0.95844904  0.45222289  0.46390741     0.00500
C787        C  0.96882103  0.45862979  0.44726822    -0.12500
C788        C  0.97937156  0.47661168  0.45033330     0.01000
C789        C  0.94855794  0.45957624  0.50185415     0.40300
C790        C  0.98932848  0.48286057  0.43241800     0.36900
C791        C  0.00943288  0.48700041  0.49818081     0.36700
C792        C  0.99047852  0.56821426  0.45540929     0.37400
N793        N  0.94005289  0.45621970  0.51607958    -0.43400
N794        N  0.99727013  0.48796661  0.41805080    -0.43800
N795        N  0.98683442  0.58431094  0.44580350    -0.41200
N796        N  0.01359782  0.47035392  0.50635095    -0.42600
H797        H  0.02331603  0.52698293  0.50312895     0.13500
H798        H  0.97579171  0.52894366  0.45222106     0.10000
H799        H  0.97042540  0.49108004  0.50290378     0.11100
H800        H  0.96865896  0.44971929  0.43164793     0.16900
C801        C  0.18849373  0.50073953  0.39971363    -0.01300
C802        C  0.19338726  0.49693329  0.37795050     0.07300
C803        C  0.18194725  0.49588134  0.36053169    -0.07300
C804        C  0.16580884  0.49773950  0.36458684     0.04700
C805        C  0.16086804  0.50067841  0.38646025    -0.14500
C806        C  0.17232338  0.50248778  0.40381031    -0.07800
C807        C  0.20993582  0.49065852  0.37321807     0.05700
C808        C  0.21609626  0.47097836  0.38284489    -0.09000
C809        C  0.23008360  0.46137152  0.37554472     0.00700
C810        C  0.23824909  0.47161274  0.35816679     0.00500
C811        C  0.23261724  0.49218164  0.34959591    -0.12500
C812        C  0.21858863  0.50175747  0.35699179     0.01000
C813        C  0.23469347  0.43992326  0.38481576     0.40300
C814        C  0.21302042  0.52257229  0.34725242     0.36900
C815        C  0.19982942  0.50249505  0.41811183     0.36700
C816        C  0.15456576  0.49659223  0.34600865     0.37400
N817        N  0.23823624  0.42271755  0.39237556    -0.43400
N818        N  0.20852323  0.53924837  0.33947807    -0.43800
N819        N  0.14555530  0.49571218  0.33112654    -0.41200
N820        N  0.20891268  0.50387953  0.43286758    -0.42600
H821        H  0.16863852  0.50452186  0.42068500     0.13500
H822        H  0.18560504  0.49269351  0.34379856     0.10000
H823        H  0.20935798  0.46221888  0.39509124     0.11100
H824        H  0.23884142  0.50030969  0.33644113     0.16900
C825        C  0.05384859  0.54221117  0.44558309    -0.01300
C826        C  0.06915962  0.54141787  0.45567189     0.07300
C827        C  0.07163427  0.54942524  0.47727881    -0.07300
C828        C  0.05921184  0.55907477  0.48863739     0.04700
C829        C  0.04395671  0.56083638  0.47824998    -0.14500
C830        C  0.04136497  0.55191007  0.45690835    -0.07800
C831        C  0.08291160  0.53286416  0.44380232     0.05700
C832        C  0.09039063  0.54704295  0.42891572    -0.09000
C833        C  0.10339266  0.53949505  0.41720933     0.00700
C834        C  0.10917578  0.51750296  0.42066503     0.00500
C835        C  0.10172181  0.50344697  0.43577190    -0.12500
C836        C  0.08867258  0.51095909  0.44732219     0.01000
C837        C  0.10980532  0.55409737  0.40075451     0.40300
C838        C  0.08105788  0.49577177  0.46219858     0.36900
C839        C  0.05079819  0.53349683  0.42353531     0.36700
C840        C  0.06249651  0.56712620  0.51089642     0.37400
N841        N  0.11477705  0.56593593  0.38752924    -0.43400
N842        N  0.07486968  0.48365011  0.47408057    -0.43800
N843        N  0.06519563  0.57365039  0.52868852    -0.41200
N844        N  0.04837323  0.52644780  0.40587752    -0.42600
H845        H  0.02976724  0.55337751  0.44867656     0.13500
H846        H  0.08340463  0.54851010  0.48511443     0.10000
H847        H  0.08585560  0.56387419  0.42616285     0.11100
H848        H  0.10594711  0.48641757  0.43824271     0.16900
C849        C  0.46752664  0.99541693  0.92434679    -0.01300
C850        C  0.46260978  0.99598925  0.94645236     0.07300
C851        C  0.46783834  0.01367485  0.96033871    -0.07300
C852        C  0.47759490  0.03067980  0.95250303     0.04700
C853        C  0.48195371  0.03048898  0.93027341    -0.14500
C854        C  0.47677543  0.01292828  0.91634413    -0.07800
C855        C  0.45288740  0.97779310  0.95600629     0.05700
C856        C  0.45894082  0.96670704  0.97496293    -0.09000
C857        C  0.45025210  0.94990751  0.98514508     0.00700
C858        C  0.43522146  0.94361897  0.97616853     0.00500
C859        C  0.42916993  0.95449015  0.95707292    -0.12500
C860        C  0.43771254  0.97176276  0.94718982     0.01000
C861        C  0.45730440  0.93894535  0.00439094     0.40300
C862        C  0.43034763  0.98359233  0.92867064     0.36900
C863        C  0.46387508  0.97664598  0.90989082     0.36700
C864        C  0.48255727  0.04858745  0.96726621     0.37400
N865        N  0.46295683  0.93020859  0.01984313    -0.43400
N866        N  0.42441770  0.99298057  0.91379544    -0.43800
N867        N  0.48652632  0.06292380  0.97917083    -0.41200
N868        N  0.46097636  0.96158433  0.89830936    -0.42600
H869        H  0.48022654  0.01282250  0.89919896     0.13500
H870        H  0.46426991  0.01417644  0.97742856     0.10000
H871        H  0.47055860  0.97119115  0.98182390     0.11100
H872        H  0.41755047  0.94994642  0.95027845     0.16900
C873        C  0.32996740  0.74467195  0.90713655    -0.01300
C874        C  0.33817045  0.73888351  0.92701726     0.07300
C875        C  0.33870067  0.71639803  0.93380272    -0.07300
C876        C  0.33142398  0.69957600  0.92077255     0.04700
C877        C  0.32345347  0.70530378  0.90057966    -0.14500
C878        C  0.32282067  0.72790388  0.89401864    -0.07800
C879        C  0.34660236  0.75606585  0.94064072     0.05700
C880        C  0.34015082  0.76300338  0.96053125    -0.09000
C881        C  0.34746055  0.77987764  0.97342952     0.00700
C882        C  0.36180384  0.78967255  0.96667018     0.00500
C883        C  0.36818667  0.78258272  0.94665730    -0.12500
C884        C  0.36068880  0.76601830  0.93362471     0.01000
C885        C  0.33938696  0.78762148  0.99266661     0.40300
C886        C  0.36763182  0.75943552  0.91310243     0.36900
C887        C  0.32853593  0.76776616  0.90010248     0.36700
C888        C  0.33296762  0.67656500  0.92801751     0.37400
N889        N  0.33278350  0.79380758  0.00798941    -0.43400
N890        N  0.37308013  0.75417929  0.89657419    -0.43800
N891        N  0.33424748  0.65813502  0.93385791    -0.41200
N892        N  0.32738521  0.78630195  0.89456419    -0.42600
H893        H  0.31650868  0.73254407  0.87876512     0.13500
H894        H  0.34505620  0.71197264  0.94908970     0.10000
H895        H  0.32912554  0.75560095  0.96567386     0.11100
H896        H  0.37915587  0.78986414  0.94120182     0.16900
C897        C  0.15294395  0.55364920  0.44978213    -0.01300
C898        C  0.16140486  0.56954674  0.43745437     0.07300
C899        C  0.16047834  0.56830646  0.41424203    -0.07300
C900        C  0.15180882  0.55130347  0.40331851     0.04700
C901        C  0.14387027  0.53491007  0.41560735    -0.14500
C902        C  0.14421877  0.53660976  0.43879454    -0.07800
C903        C  0.17236984  0.58642831  0.44808173     0.05700
C904        C  0.18844256  0.58589884  0.44276606    -0.09000
C905        C  0.19932022  0.60143670  0.45189253     0.00700
C906        C  0.19424875  0.61782138  0.46701460     0.00500
C907        C  0.17817826  0.61840815  0.47234681    -0.12500
C908        C  0.16719779  0.60322493  0.46271113     0.01000
C909        C  0.21571471  0.59957663  0.44608089     0.40300
C910        C  0.15064127  0.60583457  0.46738059     0.36900
C911        C  0.15367675  0.55367879  0.47367974     0.36700
C912        C  0.15123269  0.55105984  0.37943096     0.37400
N913        N  0.22883917  0.59802662  0.44135094    -0.43400
N914        N  0.13737015  0.60796660  0.47112484    -0.43800
N915        N  0.15083856  0.55095228  0.36026991    -0.41200
N916        N  0.15414201  0.55376759  0.49284318    -0.42600
H917        H  0.13825610  0.52400494  0.44831484     0.13500
H918        H  0.16679697  0.58048703  0.40461720     0.10000
H919        H  0.19254131  0.57312660  0.43147907     0.11100
H920        H  0.17412337  0.63112043  0.48371199     0.16900
C921        C  0.27135163  0.64235626  0.69732566    -0.01300
C922        C  0.26950023  0.66425342  0.68892895     0.07300
C923        C  0.27128406  0.68263241  0.70333298    -0.07300
C924        C  0.27482619  0.67942440  0.72599077     0.04700
C925        C  0.27653801  0.65737995  0.73452740    -0.14500
C926        C  0.27475539  0.63908580  0.71991327    -0.07800
C927        C  0.26555670  0.66811299  0.66513071     0.05700
C928        C  0.24966349  0.67118895  0.65823826    -0.09000
C929        C  0.24536029  0.67362791  0.63572486     0.00700
C930        C  0.25717241  0.67337653  0.61969389     0.00500
C931        C  0.27311245  0.67046931  0.62678450    -0.12500
C932        C  0.27733201  0.66761209  0.64923183     0.01000
C933        C  0.22880776  0.67688356  0.62972179     0.40300
C934        C  0.29377446  0.66380047  0.65559554     0.36900
C935        C  0.26972172  0.62300150  0.68300599     0.36700
C936        C  0.27590607  0.69900147  0.74008805     0.37400
N937        N  0.21550499  0.67938716  0.62501775    -0.43400
N938        N  0.30692669  0.66060442  0.66074336    -0.43800
N939        N  0.27676533  0.71477288  0.75129213    -0.41200
N940        N  0.26844284  0.60755124  0.67144034    -0.42600
H941        H  0.27612852  0.62208902  0.72612368     0.13500
H942        H  0.26979721  0.69951438  0.69685189     0.10000
H943        H  0.24059051  0.67141178  0.67048090     0.11100
H944        H  0.28229377  0.66996541  0.61472285     0.16900
C945        C  0.46749480  0.94480650  0.42125473    -0.01300
C946        C  0.46975875  0.96653508  0.41260342     0.07300
C947        C  0.45914287  0.97454565  0.39603302    -0.07300
C948        C  0.44657572  0.96132546  0.38782335     0.04700
C949        C  0.44429463  0.93953908  0.39637809    -0.14500
C950        C  0.45469073  0.93164331  0.41331866    -0.07800
C951        C  0.48281577  0.98173217  0.42042590     0.05700
C952        C  0.49292164  0.99063648  0.40466814    -0.09000
C953        C  0.50258441  0.00919927  0.40974170     0.00700
C954        C  0.50251811  0.01879519  0.43105514     0.00500
C955        C  0.49379475  0.00833413  0.44745747    -0.12500
C956        C  0.48367883  0.99031359  0.44223269     0.01000
C957        C  0.51095862  0.01963348  0.39210965     0.40300
C958        C  0.47306512  0.98278119  0.45887590     0.36900
C959        C  0.47844600  0.93535957  0.43761328     0.36700
C960        C  0.43598659  0.97085885  0.37101937     0.37400
N961        N  0.51753517  0.02784334  0.37773589    -0.43400
N962        N  0.46456539  0.97680261  0.47225892    -0.43800
N963        N  0.42756282  0.97853557  0.35750704    -0.41200
N964        N  0.48720007  0.92781425  0.45078607    -0.42600
H965        H  0.45314472  0.91484973  0.41980907     0.13500
H966        H  0.46065507  0.99136080  0.38952634     0.10000
H967        H  0.49231063  0.98419736  0.38789867     0.11100
H968        H  0.49367220  0.01577734  0.46376666     0.16900
C969        C  0.40582433  0.87250976  0.21292940    -0.01300
C970        C  0.39214162  0.86869886  0.19943441     0.07300
C971        C  0.37750316  0.86570473  0.20924690    -0.07300
C972        C  0.37629931  0.86671243  0.23230621     0.04700
C973        C  0.39003238  0.87038571  0.24598027    -0.14500
C974        C  0.40469816  0.87327847  0.23597129    -0.07800
C975        C  0.39279343  0.86822057  0.17497954     0.05700
C976        C  0.39243966  0.84748249  0.16402761    -0.09000
C977        C  0.39321314  0.84630106  0.14092649     0.00700
C978        C  0.39381568  0.86629324  0.12829171     0.00500
C979        C  0.39428747  0.88704416  0.13948646    -0.12500
C980        C  0.39394995  0.88811035  0.16260579     0.01000
C981        C  0.39436824  0.82432531  0.13100085     0.40300
C982        C  0.39488052  0.90978390  0.17332649     0.36900
C983        C  0.42112989  0.87563727  0.20344288     0.36700
C984        C  0.36070385  0.86524039  0.24123689     0.37400
N985        N  0.39541098  0.80664045  0.12320877    -0.43400
N986        N  0.39576656  0.92711256  0.18197815    -0.43800
N987        N  0.34815609  0.86416798  0.24828437    -0.41200
N988        N  0.43336011  0.87820174  0.19575969    -0.42600
H989        H  0.41534848  0.87600804  0.24613604     0.13500
H990        H  0.36695425  0.86306873  0.19881604     0.10000
H991        H  0.39191953  0.83217514  0.17362539     0.11100
H992        H  0.39483039  0.90252653  0.13021500     0.16900
C993        C  0.33731433  0.77277884  0.40977301    -0.01300
C994        C  0.32882684  0.77960989  0.42825566     0.07300
C995        C  0.33061899  0.80161897  0.43625903    -0.07300
C996        C  0.34056074  0.81693552  0.42589496     0.04700
C997        C  0.34881045  0.81028116  0.40701635    -0.14500
C998        C  0.34708910  0.78812636  0.39921595    -0.07800
C999        C  0.31753501  0.76430290  0.43893932     0.05700
C1000       C  0.32321643  0.74917456  0.45509601    -0.09000
C1001       C  0.31278983  0.73485247  0.46584219     0.00700
C1002       C  0.29632102  0.73574679  0.46060434     0.00500
C1003       C  0.29075620  0.75038654  0.44385798    -0.12500
C1004       C  0.30121642  0.76460646  0.43305142     0.01000
C1005       C  0.31938416  0.71867365  0.48138259     0.40300
C1006       C  0.29500393  0.77933603  0.41588416     0.36900
C1007       C  0.33598953  0.75018153  0.40122766     0.36700
C1008       C  0.34137394  0.83964564  0.43424852     0.37400
N1009       N  0.32468576  0.70556719  0.49368216    -0.43400
N1010       N  0.29009521  0.79110196  0.40204051    -0.43800
N1011       N  0.34198997  0.85785582  0.44094570    -0.41200
N1012       N  0.33494323  0.73203813  0.39444475    -0.42600
H1013       H  0.35342908  0.78276752  0.38484578     0.13500
H1014       H  0.32402517  0.80692151  0.45042178     0.10000
H1015       H  0.33580398  0.74853161  0.45924593     0.11100
H1016       H  0.27819667  0.75106651  0.43954300     0.16900
C1017       C  0.93118240  0.48822518  0.07186729    -0.01300
C1018       C  0.94200453  0.47983055  0.05664754     0.07300
C1019       C  0.94049940  0.45762935  0.04909113    -0.07300
C1020       C  0.92862187  0.44363591  0.05673094     0.04700
C1021       C  0.91778540  0.45199527  0.07196998    -0.14500
C1022       C  0.91915246  0.47428149  0.07937590    -0.07800
C1023       C  0.95627708  0.49252284  0.05055911     0.05700
C1024       C  0.96780594  0.49719199  0.06724006    -0.09000
C1025       C  0.98291575  0.50454575  0.06191295     0.00700
C1026       C  0.98660007  0.50757360  0.03957535     0.00500
C1027       C  0.97474876  0.50433127  0.02295505    -0.12500
C1028       C  0.95966111  0.49676021  0.02826296     0.01000
C1029       C  0.99459868  0.50818950  0.07958854     0.40300
C1030       C  0.94808176  0.49249305  0.01055340     0.36900
C1031       C  0.93233225  0.51092374  0.08018988     0.36700
C1032       C  0.92876027  0.42028993  0.05021122     0.37400
N1033       N  0.00396665  0.51111981  0.09376111    -0.43400
N1034       N  0.93882223  0.48898877  0.99636428    -0.43800
N1035       N  0.92902891  0.40154264  0.04515990    -0.41200
N1036       N  0.93328257  0.52908994  0.08693771    -0.42600
H1037       H  0.91091163  0.48070342  0.09118255     0.13500
H1038       H  0.94914004  0.45088151  0.03801957     0.10000
H1039       H  0.96529817  0.49379666  0.08438963     0.11100
H1040       H  0.97754779  0.50640403  0.00571469     0.16900
C1041       C  0.20109720  0.57837516  0.86271729    -0.01300
C1042       C  0.19719350  0.57427704  0.88481461     0.07300
C1043       C  0.20941789  0.57274090  0.90114945    -0.07300
C1044       C  0.22528640  0.57645554  0.89593368     0.04700
C1045       C  0.22912690  0.58159875  0.87389322    -0.14500
C1046       C  0.21687908  0.58178865  0.85745914    -0.07800
C1047       C  0.18034955  0.57367501  0.89119885     0.05700
C1048       C  0.17013170  0.55734296  0.88185111    -0.09000
C1049       C  0.15375498  0.55835935  0.88480611     0.00700
C1050       C  0.14740274  0.57584370  0.89755645     0.00500
C1051       C  0.15767318  0.59171801  0.90750063    -0.12500
C1052       C  0.17402619  0.59073547  0.90451633     0.01000
C1053       C  0.14369473  0.54212606  0.87345473     0.40300
C1054       C  0.18399013  0.60800192  0.91444549     0.36900
C1055       C  0.18903467  0.58083882  0.84530096     0.36700
C1056       C  0.23724202  0.57505192  0.91358385     0.37400
N1057       N  0.13574342  0.52906439  0.86420546    -0.43400
N1058       N  0.19204358  0.62174582  0.92242615    -0.43800
N1059       N  0.24672736  0.57400938  0.92787523    -0.41200
N1060       N  0.17941249  0.58289100  0.83130962    -0.42600
H1061       H  0.21938767  0.58594165  0.84053431     0.13500
H1062       H  0.20648027  0.56934076  0.91812547     0.10000
H1063       H  0.17492678  0.54425653  0.87148900     0.11100
H1064       H  0.15284542  0.60511876  0.91745212     0.16900
C1065       C  0.14614920  0.52153748  0.94137926    -0.01300
C1066       C  0.13995407  0.50114054  0.93301363     0.07300
C1067       C  0.12623311  0.50134517  0.91920730    -0.07300
C1068       C  0.11916668  0.52173121  0.91271448     0.04700
C1069       C  0.12593044  0.54222372  0.92008997    -0.14500
C1070       C  0.13907675  0.54183361  0.93497436    -0.07800
C1071       C  0.14812513  0.47962152  0.93792304     0.05700
C1072       C  0.14301377  0.46638782  0.95537397    -0.09000
C1073       C  0.15153523  0.44725075  0.96212212     0.00700
C1074       C  0.16544992  0.44104907  0.95119601     0.00500
C1075       C  0.17007295  0.45379073  0.93297664    -0.15300
C1076       C  0.16160190  0.47305437  0.92640115     0.01000
C1077       C  0.14560045  0.43422154  0.98015087     0.40300
C1078       C  0.16716703  0.48626195  0.90822800     0.36900
C1079       C  0.16000410  0.52202056  0.95611012     0.36700
C1080       C  0.10570119  0.52121794  0.89731974     0.37400
N1081       N  0.14078894  0.42386407  0.99463048    -0.43400
N1082       N  0.17158673  0.49693484  0.89370802    -0.43800
N1083       N  0.09490065  0.52064031  0.88496507    -0.41200
N1084       N  0.17110903  0.52236638  0.96792203    -0.42600
H1085       H  0.14412899  0.55751840  0.94095303     0.13500
H1086       H  0.12140048  0.48563847  0.91290530     0.10000
H1087       H  0.13256024  0.47137272  0.96411027     0.11100
H1088       H  0.18070111  0.44925509  0.92443366     0.16900
C1089       C  0.08285229  0.55284055  0.95974996    -0.01300
C1090       C  0.06726594  0.55228649  0.95051576     0.07300
C1091       C  0.06461024  0.55729358  0.92803591    -0.07300
C1092       C  0.07723490  0.56339247  0.91486649     0.04700
C1093       C  0.09280297  0.56450053  0.92424611    -0.14500
C1094       C  0.09545230  0.55900495  0.94663209    -0.07800
C1095       C  0.05377554  0.54566863  0.96408694     0.05700
C1096       C  0.04847426  0.56052088  0.98031578    -0.09000
C1097       C  0.03743408  0.55353621  0.99567819     0.00700
C1098       C  0.03165617  0.53132695  0.99485621     0.00500
C1099       C  0.03632930  0.51695557  0.97784337    -0.12500
C1100       C  0.04725846  0.52395806  0.96246832     0.01000
C1101       C  0.03316460  0.56892623  0.01294005     0.40300
C1102       C  0.05232986  0.50814976  0.94601888     0.36900
C1103       C  0.08617591  0.54682558  0.98258810     0.36700
C1104       C  0.07402349  0.56771457  0.89163263     0.37400
N1105       N  0.02984488  0.58146480  0.02667242    -0.43400
N1106       N  0.05639434  0.49547958  0.93283545    -0.43800
N1107       N  0.07149939  0.57100757  0.87296806    -0.41200
N1108       N  0.08877407  0.54190169  0.00087760    -0.42600
H1109       H  0.10734013  0.55999366  0.95402846     0.13500
H1110       H  0.05267026  0.55639947  0.92080628     0.10000
H1111       H  0.05348571  0.57724229  0.98153675     0.11100
H1112       H  0.03188814  0.49988834  0.97711941     0.16900
C1113       C  0.68405543  0.95995316  0.46553639    -0.01300
C1114       C  0.66796636  0.96591020  0.46192369     0.07300
C1115       C  0.65839191  0.95273372  0.44751237    -0.07300
C1116       C  0.66449232  0.93354464  0.43726535     0.04700
C1117       C  0.68042476  0.92709418  0.44159664    -0.14500
C1118       C  0.69003985  0.94049062  0.45575184    -0.07800
C1119       C  0.66090471  0.98564953  0.47320064     0.05700
C1120       C  0.65471220  0.00353680  0.46043571    -0.09000
C1121       C  0.64822353  0.02252607  0.47055250     0.00700
C1122       C  0.64779020  0.02374200  0.49383982     0.00500
C1123       C  0.65404424  0.00593576  0.50655536    -0.12500
C1124       C  0.66031208  0.98686809  0.49650644     0.01000
C1125       C  0.64264161  0.04083914  0.45677980     0.40300
C1126       C  0.66550457  0.96843582  0.51046363     0.36900
C1127       C  0.69475975  0.97396874  0.47865705     0.36700
C1128       C  0.65397670  0.92025981  0.42315231     0.37400
N1129       N  0.63815406  0.05546634  0.44563223    -0.43400
N1130       N  0.66964139  0.95368406  0.52169610    -0.43800
N1131       N  0.64554111  0.90961473  0.41183551    -0.41200
N1132       N  0.70328016  0.98531721  0.48912705    -0.42600
H1133       H  0.70236715  0.93596651  0.45884169     0.13500
H1134       H  0.64605159  0.95725936  0.44455041     0.10000
H1135       H  0.65515393  0.00277752  0.44254336     0.11100
H1136       H  0.65356855  0.00673317  0.52443575     0.16900
C1137       C  0.94606529  0.60543238  0.55351142    -0.01300
C1138       C  0.94597331  0.59886188  0.53107867     0.07300
C1139       C  0.93162108  0.59882188  0.51863109    -0.07300
C1140       C  0.91755132  0.60611877  0.52797150     0.04700
C1141       C  0.91774905  0.61360324  0.55023884    -0.14500
C1142       C  0.93204828  0.61259702  0.56287237    -0.07800
C1143       C  0.96096938  0.59339832  0.52022294     0.05700
C1144       C  0.97029543  0.57553688  0.52844097    -0.09000
C1145       C  0.98573691  0.57233181  0.52138605     0.00700
C1146       C  0.99188705  0.58692402  0.50548976     0.00500
C1147       C  0.98233283  0.60415916  0.49657763    -0.12500
C1148       C  0.96691199  0.60737778  0.50362440     0.01000
C1149       C  0.99541226  0.55528846  0.53215320     0.40300
C1150       C  0.95776272  0.62582786  0.49438051     0.36900
C1151       C  0.96055858  0.60616207  0.56699815     0.36700
C1152       C  0.90316202  0.60551393  0.51430926     0.37400
N1153       N  0.00309720  0.54168147  0.54100866    -0.43400
N1154       N  0.95042886  0.64054465  0.48683676    -0.43800
N1155       N  0.89169411  0.60501805  0.50320833    -0.41200
N1156       N  0.97216851  0.60669664  0.57779233    -0.42600
H1157       H  0.93252710  0.61841634  0.57984516     0.13500
H1158       H  0.93149069  0.59347218  0.50148785     0.10000
H1159       H  0.96577382  0.56481911  0.54124661     0.11100
H1160       H  0.98709100  0.61544517  0.48442627     0.16900
C1161       C  0.81305600  0.74757061  0.49799950    -0.01300
C1162       C  0.79871238  0.75595783  0.50601241     0.07300
C1163       C  0.79592203  0.75409293  0.52869806    -0.07300
C1164       C  0.80712495  0.74422000  0.54338812     0.04700
C1165       C  0.82159367  0.73598250  0.53543103    -0.14500
C1166       C  0.82430476  0.73782081  0.51266024    -0.07800
C1167       C  0.78641831  0.76659939  0.49107351     0.05700
C1168       C  0.77925738  0.75397638  0.47377750    -0.09000
C1169       C  0.76741199  0.76332227  0.45968588     0.00700
C1170       C  0.76261684  0.78587297  0.46264279     0.00500
C1171       C  0.76973401  0.79836038  0.48010432    -0.12500
C1172       C  0.78144799  0.78895738  0.49426161     0.01000
C1173       C  0.75982806  0.74895411  0.44321318     0.40300
C1174       C  0.78832630  0.80273804  0.51179835     0.36900
C1175       C  0.81663056  0.74899872  0.47485725     0.36700
C1176       C  0.80296806  0.74178915  0.56620665     0.37400
N1177       N  0.75373265  0.73729120  0.43014017    -0.43400
N1178       N  0.79375813  0.81372970  0.52594808    -0.43800
N1179       N  0.79950275  0.73988050  0.58446246    -0.41200
N1180       N  0.81952619  0.74999162  0.45631294    -0.42600
H1181       H  0.83532745  0.73168955  0.50620560     0.13500
H1182       H  0.78477994  0.76009752  0.53490855     0.10000
H1183       H  0.78272636  0.73663101  0.47155767     0.11100
H1184       H  0.76629962  0.81566821  0.48259618     0.16900
C1185       C  0.96638017  0.61206579  0.97501351    -0.01300
C1186       C  0.96291571  0.59287609  0.98747431     0.07300
C1187       C  0.94715425  0.58820632  0.99245897    -0.07300
C1188       C  0.93475970  0.60195439  0.98441547     0.04700
C1189       C  0.93815504  0.62056462  0.97093269    -0.14500
C1190       C  0.95401473  0.62555991  0.96661745    -0.07800
C1191       C  0.97549535  0.57695763  0.99474508     0.05700
C1192       C  0.98071166  0.57693921  0.01699142    -0.09000
C1193       C  0.99189744  0.56121312  0.02468833     0.00700
C1194       C  0.99798081  0.54517917  0.01002659     0.00500
C1195       C  0.99318137  0.54569213  0.98759441    -0.12500
C1196       C  0.98191503  0.56138345  0.97988672     0.01000
C1197       C  0.99705802  0.56180082  0.04770419     0.40300
C1198       C  0.97654265  0.56058784  0.95694394     0.36900
C1199       C  0.98253401  0.61830245  0.97087248     0.36700
C1200       C  0.91869582  0.59586813  0.98925684     0.37400
N1201       N  0.00125406  0.56237459  0.06614188    -0.43400
N1202       N  0.97215390  0.55997845  0.93858512    -0.43800
N1203       N  0.90584710  0.59090644  0.99321880    -0.41200
N1204       N  0.99549170  0.62339753  0.96773385    -0.42600
H1205       H  0.95675115  0.64007597  0.95665479     0.13500
H1206       H  0.94452426  0.57348013  0.00219403     0.10000
H1207       H  0.97588966  0.58903334  0.02835951     0.11100
H1208       H  0.99769563  0.53319026  0.97641294     0.16900
C1209       C  0.87473760  0.70892662  0.78440885    -0.01300
C1210       C  0.88003154  0.69098253  0.77128081     0.07300
C1211       C  0.88787553  0.67286525  0.78174390    -0.07300
C1212       C  0.88997756  0.67197251  0.80481930     0.04700
C1213       C  0.88494867  0.69013980  0.81798333    -0.14500
C1214       C  0.87741339  0.70850142  0.80741899    -0.07800
C1215       C  0.87740553  0.69050707  0.74671170     0.05700
C1216       C  0.88256170  0.70864867  0.73396957    -0.09000
C1217       C  0.88076313  0.70838929  0.71081308     0.00700
C1218       C  0.87436594  0.68928539  0.69993842     0.00500
C1219       C  0.86917301  0.67118851  0.71259690    -0.12500
C1220       C  0.87027201  0.67187189  0.73576596     0.01000
C1221       C  0.88605875  0.72760519  0.69858480     0.40300
C1222       C  0.86350479  0.65357762  0.74792207     0.36900
C1223       C  0.86595043  0.72756569  0.77486226     0.36700
C1224       C  0.89624213  0.65144519  0.81432597     0.37400
N1225       N  0.89020081  0.74307389  0.68878473    -0.43400
N1226       N  0.85803687  0.63900573  0.75772603    -0.43800
N1227       N  0.90111658  0.63480836  0.82174855    -0.41200
N1228       N  0.85888970  0.74251286  0.76726397    -0.42600
H1229       H  0.87341378  0.72253357  0.81714674     0.13500
H1230       H  0.89204436  0.65904267  0.77184877     0.10000
H1231       H  0.88816993  0.72295216  0.74210189     0.11100
H1232       H  0.86397352  0.65664415  0.70434504     0.16900
C1233       C  0.63447374  0.98195110  0.02634111    -0.01300
C1234       C  0.64371733  0.97587724  0.00826178     0.07300
C1235       C  0.64371932  0.98993610  0.98957447    -0.07300
C1236       C  0.63484654  0.00995760  0.98899133     0.04700
C1237       C  0.62565345  0.01585935  0.00712567    -0.14500
C1238       C  0.62537119  0.00153371  0.02544630    -0.07800
C1239       C  0.65366639  0.95520482  0.00940321     0.05700
C1240       C  0.64614636  0.93440986  0.01211870    -0.09000
C1241       C  0.65485121  0.91532762  0.01853781     0.00700
C1242       C  0.67146736  0.91669626  0.02170268     0.00500
C1243       C  0.67914721  0.93697954  0.01707325    -0.12500
C1244       C  0.67038023  0.95627580  0.01125643     0.01000
C1245       C  0.64641943  0.89468803  0.02234720     0.40300
C1246       C  0.67865913  0.97734114  0.00922397     0.36900
C1247       C  0.63499739  0.96912216  0.04662028     0.36700
C1248       C  0.63532658  0.02424645  0.96980345     0.37400
N1249       N  0.63960774  0.87818526  0.02539437    -0.43400
N1250       N  0.68527000  0.99426038  0.00772034    -0.43800
N1251       N  0.63569704  0.03572970  0.95440443    -0.41200
N1252       N  0.63559142  0.95884002  0.06285833    -0.42600
H1253       H  0.61863422  0.00641160  0.03964740     0.13500
H1254       H  0.65081739  0.98542054  0.97562492     0.10000
H1255       H  0.63331675  0.93343518  0.01054556     0.11100
H1256       H  0.69191984  0.93815223  0.01951331     0.16900
C1257       C  0.69750539  0.82854336  0.26068136    -0.01300
C1258       C  0.71102637  0.82480646  0.24807885     0.07300
C1259       C  0.72580223  0.82192251  0.25923923    -0.07300
C1260       C  0.72729019  0.82344197  0.28245885     0.04700
C1261       C  0.71382250  0.82830012  0.29494571    -0.14500
C1262       C  0.69902537  0.83052200  0.28375762    -0.07800
C1263       C  0.71006876  0.82595203  0.22334159     0.05700
C1264       C  0.70394828  0.84551605  0.21330823    -0.09000
C1265       C  0.70269409  0.84773628  0.19024191     0.00700
C1266       C  0.70807492  0.83029070  0.17646397     0.00500
C1267       C  0.71422126  0.81065674  0.18654061    -0.12500
C1268       C  0.71513883  0.80828832  0.20968393     0.01000
C1269       C  0.69634597  0.86851837  0.18146940     0.40300
C1270       C  0.72092301  0.78737735  0.21894550     0.36900
C1271       C  0.68187281  0.83021087  0.25026764     0.36700
C1272       C  0.74290114  0.82119538  0.29281295     0.37400
N1273       N  0.69111638  0.88522102  0.17469959    -0.43400
N1274       N  0.72552539  0.77055303  0.22627238    -0.43800
N1275       N  0.75544010  0.81933826  0.30103168    -0.41200
N1276       N  0.66937807  0.83151198  0.24181501    -0.42600
H1277       H  0.68853110  0.83374163  0.29311306     0.13500
H1278       H  0.73629468  0.81922594  0.24974126     0.10000
H1279       H  0.70019977  0.85932182  0.22365985     0.11100
H1280       H  0.71823177  0.79696035  0.17627819     0.16900
C1281       C  0.81871841  0.76848598  0.98067355    -0.01300
C1282       C  0.80918961  0.75778779  0.99614157     0.07300
C1283       C  0.81187926  0.73511768  0.00124724    -0.07300
C1284       C  0.82385677  0.72299092  0.99105709     0.04700
C1285       C  0.83352866  0.73373942  0.97566924    -0.14500
C1286       C  0.83076673  0.75646163  0.97061511    -0.07800
C1287       C  0.79609238  0.76988700  0.00670649     0.05700
C1288       C  0.78225682  0.77473264  0.99408579    -0.09000
C1289       C  0.76966423  0.78638306  0.00332545     0.00700
C1290       C  0.77099526  0.79393519  0.02554053     0.00500
C1291       C  0.78481723  0.78864784  0.03821545    -0.12500
C1292       C  0.79724922  0.77660746  0.02905093     0.01000
C1293       C  0.75525109  0.78907405  0.98999098     0.40300
C1294       C  0.81115946  0.77153539  0.04276584     0.36900
C1295       C  0.81639948  0.79183362  0.97501821     0.36700
C1296       C  0.82523588  0.69927073  0.99560120     0.37400
N1297       N  0.74369087  0.79098177  0.97924883    -0.43400
N1298       N  0.82229040  0.76735562  0.05374906    -0.43800
N1299       N  0.82624658  0.68021938  0.99912345    -0.41200
N1300       N  0.81451147  0.81054053  0.97049276    -0.42600
H1301       H  0.83808785  0.76489451  0.95882565     0.13500
H1302       H  0.80436652  0.72678271  0.01287556     0.10000
H1303       H  0.78122632  0.76907919  0.97699650     0.11100
H1304       H  0.78602395  0.79414648  0.05532610     0.16900
loop_ 
_geom_bond_atom_site_label_1 
_geom_bond_atom_site_label_2 
_geom_bond_distance 
_geom_bond_site_symmetry_2 
_ccdc_geom_bond_type 
N1            N2   1.321       .  A
N1            C5   1.344       .  A
N1           Cu9   2.066       .  S
N2            C3   1.348       .  A
N2           Cu8   2.091       .  S
C3            C4   1.393       .  A
C3            H6   1.081       .  S
C4            C5   1.385       .  A
C4         C1266   1.493       .  S
C5            H7   1.083       .  S
Cu8          N11   2.091       .  S
Cu9          N19   2.066       .  S
Cu10         N12   2.084       .  S
Cu10         N18   2.083       .  S
N11          N12   1.325       .  A
N11          C15   1.346       .  A
N12          C13   1.348       .  A
C13          C14   1.384       .  A
C13          H16   1.081       .  S
C14          C15   1.384       .  A
C14        C1242   1.481       .  S
C15          H17   1.083       .  S
N18          N19   1.321       .  A
N18          C22   1.347       .  A
N19          C20   1.343       .  A
C20          C21   1.384       .  A
C20          H23   1.083       .  S
C21          C22   1.389       .  A
C21        C1290   1.488       .  S
C22          H24   1.082       .  S
N25          N26   1.319       .  A
N25          C29   1.343       .  A
N25         Cu33   2.065       .  S
N26          C27   1.344       .  A
N26         Cu32   2.068       .  S
C27          C28   1.389       .  A
C27          H30   1.079       .  S
C28          C29   1.387       .  A
C28        C1213   1.490       .  S
C29          H31   1.082       .  S
Cu32         N35   2.068       .  S
Cu33         N43   2.066       .  S
Cu34         N36   2.080       .  S
Cu34         N42   2.080       .  S
N35          N36   1.323       .  A
N35          C39   1.342       .  A
N36          C37   1.348       .  A
C37          C38   1.385       .  A
C37          H40   1.079       .  S
C38          C39   1.381       .  A
C38        C1189   1.478       .  S
C39          H41   1.081       .  S
N42          N43   1.322       .  A
N42          C46   1.346       .  A
N43          C44   1.342       .  A
C44          C45   1.382       .  A
C44          H47   1.083       .  S
C45          C46   1.387       .  A
C45        C1285   1.482       .  S
C46          H48   1.082       .  S
N49          N50   1.324       .  A
N49          C53   1.347       .  A
N49         Cu57   2.088       .  S
N50          C51   1.344       .  A
N50         Cu56   2.073       .  S
C51          C52   1.381       .  A
C51          H54   1.084       .  S
C52          C53   1.385       .  A
C52        C1218   1.479       .  S
C53          H55   1.083       .  S
Cu56         N59   2.072       .  S
Cu57         N67   2.088       .  S
Cu58         N60   2.059       .  S
Cu58         N66   2.060       .  S
N59          N60   1.319       .  A
N59          C63   1.343       .  A
N60          C61   1.343       .  A
C61          C62   1.386       .  A
C61          H64   1.080       .  S
C62          C63   1.389       .  A
C62        C1141   1.485       .  S
C63          H65   1.082       .  S
N66          N67   1.321       .  A
N66          C70   1.341       .  A
N67          C68   1.348       .  A
C68          C69   1.392       .  A
C68          H71   1.080       .  S
C69          C70   1.384       .  A
C69        C1165   1.491       .  S
C70          H72   1.081       .  S
N73          N74   1.323       .  A
N73          C77   1.348       .  A
N73         Cu81   2.084       .  S
N74          C75   1.346       .  A
N74         Cu80   2.091       .  S
C75          C76   1.388       .  A
C75          H78   1.082       .  S
C76          C77   1.387       .  A
C76        C1261   1.491       .  S
C77          H79   1.084       .  S
Cu80         N83   2.090       .  S
Cu81         N91   2.084       .  S
Cu82         N84   2.079       .  S
Cu82         N90   2.079       .  S
N83          N84   1.323       .  A
N83          C87   1.349       .  A
N84          C85   1.346       .  A
C85          C86   1.384       .  A
C85          H88   1.082       .  S
C86          C87   1.388       .  A
C86        C1117   1.487       .  S
C87          H89   1.082       .  S
N90          N91   1.322       .  A
N90          C94   1.345       .  A
N91          C92   1.348       .  A
C92          C93   1.389       .  A
C92          H95   1.080       .  S
C93          C94   1.387       .  A
C93        C1170   1.491       .  S
C94          H96   1.082       .  S
N97         C101   1.356       .  A
N97          C98   1.355       .  A
N97        C1069   1.442       .  S
C98          C99   1.381       .  A
C98        C1050   1.482       .  S
C99         C100   1.378       .  A
C99         H102   1.082       .  S
C100        C101   1.384       .  A
C100        H103   1.082       .  S
C101       C1093   1.481       .  S
N104        C108   1.353       .  A
N104        C105   1.353       .  A
N104       C1194   1.438   1_455  S
C105        C106   1.381       .  A
C105       C1026   1.478   1_455  S
C106        C107   1.376       .  A
C106        H109   1.082       .  S
C107        C108   1.384       .  A
C107        H110   1.082       .  S
C108       C1098   1.478   1_554  S
N111        N112   1.319       .  A
N111        C115   1.347       .  A
N111       Cu119   2.079       .  S
N112        C113   1.342       .  A
N112       Cu118   2.058       .  S
C113        C114   1.384       .  A
C113        H116   1.083       .  S
C114        C115   1.390       .  A
C114        C973   1.487       .  S
C115        H117   1.080       .  S
Cu118       N121   2.058       .  S
Cu119       N129   2.080       .  S
Cu120       N122   2.089       .  S
Cu120       N128   2.090       .  S
N121        N122   1.322       .  A
N121        C125   1.340       .  A
N122        C123   1.350       .  A
C123        C124   1.389       .  A
C123        H126   1.082       .  S
C124        C125   1.380       .  A
C124        C949   1.482       .  S
C125        H127   1.082       .  S
N128        N129   1.325       .  A
N128        C132   1.348       .  A
N129        C130   1.344       .  A
C130        C131   1.383       .  A
C130        H133   1.083       .  S
C131        C132   1.387       .  A
C131        C997   1.485       .  S
C132        H134   1.082       .  S
N135        N136   1.321       .  A
N135        C139   1.343       .  A
N135       Cu143   2.069       .  S
N136        C137   1.348       .  A
N136       Cu142   2.083       .  S
C137        C138   1.389       .  A
C137        H140   1.081       .  S
C138        C139   1.384       .  A
C138        C930   1.487       .  S
C139        H141   1.084       .  S
Cu142       N145   2.083       .  S
Cu143       N153   2.070       .  S
Cu144       N146   2.092       .  S
Cu144       N152   2.091       .  S
N145        N146   1.324       .  A
N145        C149   1.347       .  A
N146        C147   1.348       .  A
C147        C148   1.387       .  A
C147        H150   1.080       .  S
C148        C149   1.384       .  A
C148        C906   1.486       .  S
C149        H151   1.082       .  S
N152        N153   1.322       .  A
N152        C156   1.349       .  A
N153        C154   1.344       .  A
C154        C155   1.383       .  A
C154        H157   1.082       .  S
C155        C156   1.388       .  A
C155       C1002   1.485       .  S
C156        H158   1.083       .  S
N159        N160   1.320       .  A
N159        C163   1.344       .  A
N159       Cu167   2.067       .  S
N160        C161   1.344       .  A
N160       Cu166   2.070       .  S
C161        C162   1.387       .  A
C161        H164   1.084       .  S
C162        C163   1.388       .  A
C162        C978   1.489       .  S
C163        H165   1.080       .  S
Cu166       N169   2.070       .  S
Cu167       N177   2.067       .  S
Cu168       N170   2.075       .  S
Cu168       N176   2.075       .  S
N169        N170   1.323   1_554  A
N169        C173   1.342       .  A
N170        C171   1.346       .  A
C171        C172   1.384       .  A
C171        H174   1.083       .  S
C172        C173   1.382   1_556  A
C172        C858   1.479       .  S
C173        H175   1.082       .  S
N176        N177   1.322   1_556  A
N176        C180   1.345       .  A
N177        C178   1.342       .  A
C178        C179   1.385   1_554  A
C178        H181   1.081       .  S
C179        C180   1.387       .  A
C179        C882   1.485       .  S
C180        H182   1.081       .  S
N183        N184   1.321       .  A
N183        C187   1.347       .  A
N183       Cu191   2.073       .  S
N184        C185   1.343       .  A
N184       Cu190   2.072       .  S
C185        C186   1.386       .  A
C185        H188   1.082       .  S
C186        C187   1.388       .  A
C186        C925   1.487       .  S
C187        H189   1.081       .  S
Cu190       N193   2.070       .  S
Cu191       N201   2.074       .  S
Cu192       N194   2.069       .  S
Cu192       N200   2.069       .  S
N193        N194   1.320       .  A
N193        C197   1.341       .  A
N194        C195   1.346       .  A
C195        C196   1.389       .  A
C195        H198   1.080       .  S
C196        C197   1.389       .  A
C196       C1045   1.490       .  S
C197        H199   1.082       .  S
N200        N201   1.323       .  A
N200        C204   1.344       .  A
N201        C202   1.344       .  A
C202        C203   1.384       .  A
C202        H205   1.081       .  S
C203        C204   1.383       .  A
C203        C877   1.479       .  S
C204        H206   1.081       .  S
N207        C211   1.358       .  A
N207        C208   1.358       .  A
N207        C901   1.447       .  S
C208        C209   1.382       .  A
C208        C805   1.481       .  S
C209        C210   1.373       .  A
C209        H212   1.082       .  S
C210        C211   1.382       .  A
C210        H213   1.082       .  S
C211        C834   1.478       .  S
N214        C218   1.357       .  A
N214        C215   1.355       .  A
N214        C781   1.444       .  S
C215        C216   1.379       .  A
C215       C1146   1.475   1_455  S
C216        C217   1.373       .  A
C216        H219   1.082       .  S
C217        C218   1.385       .  A
C217        H220   1.082       .  S
C218        C829   1.481       .  S
N221        N222   1.322       .  A
N221        C225   1.350       .  A
N221       Cu229   2.092       .  S
N222        C223   1.340       .  A
N222       Cu228   2.066       .  S
C223        C224   1.384       .  A
C223        H226   1.084       .  S
C224        C225   1.393       .  A
C224        C733   1.493       .  S
C225        H227   1.081       .  S
Cu228       N231   2.065       .  S
Cu229       N239   2.092       .  S
Cu230       N232   2.055       .  S
Cu230       N238   2.055       .  S
N231        N232   1.320       .  A
N231        C235   1.344       .  A
N232        C233   1.342       .  A
C233        C234   1.382       .  A
C233        H236   1.081       .  S
C234        C235   1.383       .  A
C234       C1021   1.473       .  S
C235        H237   1.082       .  S
N238        N239   1.323       .  A
N238        C242   1.342       .  A
N239        C240   1.347       .  A
C240        C241   1.387       .  A
C240        H243   1.081       .  S
C241        C242   1.378       .  A
C241        C762   1.476       .  S
C242        H244   1.081       .  S
N245        N246   1.322       .  A
N245        C249   1.340       .  A
N245       Cu253   2.059       .  S
N246        C247   1.348       .  A
N246       Cu252   2.088       .  S
C247        C248   1.390       .  A
C247        H250   1.082       .  S
C248        C249   1.382       .  A
C248        C709   1.487       .  S
C249        H251   1.084       .  S
Cu252       N255   2.088       .  S
Cu253       N263   2.059       .  S
Cu254       N256   2.063       .  S
Cu254       N262   2.063       .  S
N255        N256   1.322       .  A
N255        C259   1.346       .  A
N256        C257   1.343       .  A
C257        C258   1.383       .  A
C257        H260   1.081       .  S
C258        C259   1.388       .  A
C258        C685   1.485       .  S
C259        H261   1.083       .  S
N262        N263   1.320       .  A
N262        C266   1.342       .  A
N263        C264   1.345       .  A
C264        C265   1.381       .  A
C264        H267   1.081       .  S
C265        C266   1.383       .  A
C265        C757   1.474       .  S
C266        H268   1.081       .  S
N269        N270   1.320       .  A
N269        C273   1.347       .  A
N269       Cu277   2.074       .  S
N270        C271   1.344       .  A
N270       Cu276   2.071       .  S
C271        C272   1.385       .  A
C271        H274   1.084       .  S
C272        C273   1.388       .  A
C272        C738   1.486       .  S
C273        H275   1.081       .  S
Cu276       N279   2.072       .  S
Cu277       N287   2.075       .  S
Cu278       N280   2.092       .  S
Cu278       N286   2.092       .  S
N279        N280   1.321       .  A
N279        C283   1.342       .  A
N280        C281   1.350       .  A
C281        C282   1.394       .  A
C281        H284   1.078       .  S
C282        C283   1.386       .  A
C282        C786   1.497       .  S
C283        H285   1.081       .  S
N286        N287   1.323       .  A
N286        C290   1.350       .  A
N287        C288   1.341       .  A
C288        C289   1.385       .  A
C288        H291   1.083       .  S
C289        C290   1.391       .  A
C289        C661   1.492       .  S
C290        H292   1.081       .  S
N293        N294   1.321       .  A
N293        C297   1.345       .  A
N293       Cu301   2.077       .  S
N294        C295   1.344       .  A
N294       Cu300   2.067       .  S
C295        C296   1.386       .  A
C295        H298   1.081       .  S
C296        C297   1.388       .  A
C296        C714   1.489       .  S
C297        H299   1.084       .  S
Cu300       N303   2.066       .  S
Cu301       N311   2.078       .  S
Cu302       N304   2.084       .  S
Cu302       N310   2.084       .  S
N303        N304   1.322       .  A
N303        C307   1.344       .  A
N304        C305   1.347       .  A
C305        C306   1.387       .  A
C305        H308   1.081       .  S
C306        C307   1.381       .  A
C306        C637   1.480       .  S
C307        H309   1.081       .  S
N310        N311   1.323       .  A
N310        C314   1.345       .  A
N311        C312   1.346       .  A
C312        C313   1.385       .  A
C312        H315   1.083       .  S
C313        C314   1.387       .  A
C313        C666   1.487       .  S
C314        H316   1.083       .  S
N317        C321   1.356       .  A
N317        C318   1.356       .  A
N317       C1237   1.439       .  S
C318        C319   1.384       .  A
C318        C613   1.481       .  S
C319        C320   1.374       .  A
C319        H322   1.083       .  S
C320        C321   1.380       .  A
C320        H323   1.082       .  S
C321        C690   1.476       .  S
N324        C328   1.356       .  A
N324        C325   1.356       .  A
N324        C853   1.437       .  S
C325        C326   1.382       .  A
C325        C594   1.484       .  S
C326        C327   1.375       .  A
C326        H329   1.082       .  S
C327        C328   1.383       .  A
C327        H330   1.082       .  S
C328        C618   1.482       .  S
N331        N332   1.320       .  A
N331        C335   1.344       .  A
N331       Cu339   2.065       .  S
N332        C333   1.344       .  A
N332       Cu338   2.068       .  S
C333        C334   1.386       .  A
C333        H336   1.083       .  S
C334        C335   1.385       .  A
C334        C541   1.482       .  S
C335        H337   1.084       .  S
Cu338       N341   2.068   1_554  S
Cu339       N349   2.066   1_554  S
Cu340       N342   2.091       .  S
Cu340       N348   2.091       .  S
N341        N342   1.323       .  A
N341        C345   1.342       .  A
N342        C343   1.349       .  A
C343        C344   1.389       .  A
C343        H346   1.081       .  S
C344        C345   1.383       .  A
C344       C1074   1.485       .  S
C345        H347   1.081       .  S
N348        N349   1.322       .  A
N348        C352   1.348       .  A
N349        C350   1.341       .  A
C350        C351   1.384       .  A
C350        H353   1.083       .  S
C351        C352   1.391       .  A
C351        C570   1.490       .  S
C352        H354   1.082       .  S
N355        N356   1.322       .  A
N355        C359   1.346       .  A
N355       Cu363   2.074       .  S
N356        C357   1.343       .  A
N356       Cu362   2.069       .  S
C357        C358   1.383       .  A
C357        H360   1.082       .  S
C358        C359   1.386       .  A
C358        C522   1.482       .  S
C359        H361   1.081       .  S
Cu362       N365   2.069       .  S
Cu363       N373   2.074       .  S
Cu364       N366   2.070       .  S
Cu364       N372   2.070       .  S
N365        N366   1.321       .  A
N365        C369   1.343       .  A
N366        C367   1.345       .  A
C367        C368   1.385       .  A
C367        H370   1.080       .  S
C368        C369   1.384       .  A
C368        C589   1.481       .  S
C369        H371   1.081       .  S
N372        N373   1.322       .  A
N372        C376   1.343       .  A
N373        C374   1.345       .  A
C374        C375   1.386       .  A
C374        H377   1.081       .  S
C375        C376   1.384       .  A
C375        C565   1.483       .  S
C376        H378   1.083       .  S
N379        N380   1.321       .  A
N379        C383   1.343       .  A
N379       Cu387   2.072       .  S
N380        C381   1.344       .  A
N380       Cu386   2.067       .  S
C381        C382   1.386       .  A
C381        H384   1.084       .  S
C382        C383   1.386       .  A
C382        C546   1.484       .  S
C383        H385   1.084       .  S
Cu386       N389   2.067       .  S
Cu387       N397   2.072       .  S
Cu388       N390   2.074       .  S
Cu388       N396   2.075       .  S
N389        N390   1.321       .  A
N389        C393   1.343       .  A
N390        C391   1.344       .  A
C391        C392   1.387       .  A
C391        H394   1.080       .  S
C392        C393   1.384       .  A
C392        C810   1.484       .  S
C393        H395   1.082       .  S
N396        N397   1.323       .  A
N396        C400   1.345       .  A
N397        C398   1.345       .  A
C398        C399   1.382       .  A
C398        H401   1.081       .  S
C399        C400   1.382       .  A
C399        C498   1.477       .  S
C400        H402   1.083       .  S
N403        N404   1.322       .  A
N403        C407   1.345       .  A
N403       Cu411   2.076       .  S
N404        C405   1.343       .  A
N404       Cu410   2.071       .  S
C405        C406   1.384       .  A
C405        H408   1.084       .  S
C406        C407   1.386       .  A
C406        C517   1.484       .  S
C407        H409   1.082       .  S
Cu410       N413   2.071       .  S
Cu411       N421   2.076       .  S
Cu412       N414   2.072       .  S
Cu412       N420   2.073       .  S
N413        N414   1.321       .  A
N413        C417   1.345       .  A
N414        C415   1.343       .  A
C415        C416   1.387       .  A
C415        H418   1.082       .  S
C416        C417   1.387       .  A
C416        C469   1.487       .  S
C417        H419   1.081       .  S
N420        N421   1.321       .  A
N420        C424   1.345       .  A
N421        C422   1.345       .  A
C422        C423   1.389       .  A
C422        H425   1.080       .  S
C423        C424   1.388       .  A
C423        C493   1.490       .  S
C424        H426   1.080       .  S
N427        C431   1.361       .  A
N427        C428   1.361       .  A
N427       C1122   1.444       .  S
C428        C429   1.383       .  A
C428        C642   1.489       .  S
C429        C430   1.370       .  A
C429        H432   1.082       .  S
C430        C431   1.383       .  A
C430        H433   1.083       .  S
C431        C450   1.487       .  S
N434        C438   1.352       .  A
N434        C435   1.354       .  A
N434        C954   1.440       .  S
C435        C436   1.386       .  A
C435        C445   1.476       .  S
C436        C437   1.376       .  A
C436        H439   1.082       .  S
C437        C438   1.378       .  A
C437        H440   1.082       .  S
C438        C474   1.475       .  S
C441        C442   1.415       .  A
C441        C446   1.401       .  A
C441        C455   1.444       .  S
C442        C443   1.405       .  A
C442        C447   1.493       .  S
C443        C444   1.400       .  A
C443        H462   1.085       .  S
C444        C445   1.410       .  A
C444        C456   1.444       .  S
C445        C446   1.401       .  A
C446        H461   1.085       .  S
C447        C448   1.406       .  A
C447        C452   1.414       .  A
C448        C449   1.406       .  A
C448        H463   1.084       .  S
C449        C450   1.413       .  A
C449        C453   1.441       .  S
C450        C451   1.403       .  A
C451        C452   1.395       .  A
C451        H464   1.084       .  S
C452        C454   1.446       .  S
C453        N457   1.157   1_545  T
C454        N458   1.157       .  T
C455        N460   1.157       .  T
C456        N459   1.157       .  T
C465        C466   1.410       .  A
C465        C470   1.397       .  A
C465        C479   1.445       .  S
C466        C467   1.402       .  A
C466        C471   1.483       .  S
C467        C468   1.403       .  A
C467        H486   1.084       .  S
C468        C469   1.415       .  A
C468        C480   1.443       .  S
C469        C470   1.406       .  A
C470        H485   1.083       .  S
C471        C472   1.403       .  A
C471        C476   1.412       .  A
C472        C473   1.399       .  A
C472        H487   1.085       .  S
C473        C474   1.409       .  A
C473        C477   1.444       .  S
C474        C475   1.400       .  A
C475        C476   1.400       .  A
C475        H488   1.085       .  S
C476        C478   1.443       .  S
C477        N481   1.157       .  T
C478        N482   1.157       .  T
C479        N484   1.157       .  T
C480        N483   1.157       .  T
C489        C490   1.411       .  A
C489        C494   1.401       .  A
C489        C503   1.444       .  S
C490        C491   1.403       .  A
C490        C495   1.490       .  S
C491        C492   1.401       .  A
C491        H510   1.085       .  S
C492        C493   1.417       .  A
C492        C504   1.443       .  S
C493        C494   1.407       .  A
C494        H509   1.084       .  S
C495        C496   1.405       .  A
C495        C500   1.413       .  A
C496        C497   1.400       .  A
C496        H511   1.084       .  S
C497        C498   1.411       .  A
C497        C501   1.444       .  S
C498        C499   1.402       .  A
C499        C500   1.401       .  A
C499        H512   1.084       .  S
C500        C502   1.444       .  S
C501        N505   1.157       .  T
C502        N506   1.157       .  T
C503        N508   1.157       .  T
C504        N507   1.157       .  T
C513        C514   1.411       .  A
C513        C518   1.400       .  A
C513        C527   1.445       .  S
C514        C515   1.403       .  A
C514        C519   1.487       .  S
C515        C516   1.401       .  A
C515        H534   1.084       .  S
C516        C517   1.414       .  A
C516        C528   1.443       .  S
C517        C518   1.406       .  A
C518        H533   1.083       .  S
C519        C520   1.403       .  A
C519        C524   1.411       .  A
C520        C521   1.401       .  A
C520        H535   1.086       .  S
C521        C522   1.414       .  A
C521        C525   1.444       .  S
C522        C523   1.404       .  A
C523        C524   1.399       .  A
C523        H536   1.086       .  S
C524        C526   1.444       .  S
C525        N529   1.157       .  T
C526        N530   1.157       .  T
C527        N532   1.157       .  T
C528        N531   1.157       .  T
C537        C538   1.407       .  A
C537        C542   1.400       .  A
C537        C551   1.444       .  S
C538        C539   1.401       .  A
C538        C543   1.479       .  S
C539        C540   1.401       .  A
C539        H558   1.085       .  S
C540        C541   1.414       .  A
C540        C552   1.444       .  S
C541        C542   1.406       .  A
C542        H557   1.084       .  S
C543        C544   1.401       .  A
C543        C548   1.407       .  A
C544        C545   1.401       .  A
C544        H559   1.086       .  S
C545        C546   1.416       .  A
C545        C549   1.444       .  S
C546        C547   1.406       .  A
C547        C548   1.398       .  A
C547        H560   1.085       .  S
C548        C550   1.444       .  S
C549        N553   1.157       .  T
C550        N554   1.157       .  T
C551        N556   1.157       .  T
C552        N555   1.157       .  T
C561        C562   1.409       .  A
C561        C566   1.399       .  A
C561        C575   1.444       .  S
C562        C563   1.402       .  A
C562        C567   1.483       .  S
C563        C564   1.401       .  A
C563        H582   1.085       .  S
C564        C565   1.414       .  A
C564        C576   1.443       .  S
C565        C566   1.406       .  A
C566        H581   1.084       .  S
C567        C568   1.402       .  A
C567        C572   1.408       .  A
C568        C569   1.403       .  A
C568        H583   1.086       .  S
C569        C570   1.416       .  A
C569        C573   1.443       .  S
C570        C571   1.407       .  A
C571        C572   1.398       .  A
C571        H584   1.085       .  S
C572        C574   1.445       .  S
C573        N577   1.157       .  T
C574        N578   1.157       .  T
C575        N580   1.157       .  T
C576        N579   1.157       .  T
C585        C586   1.409       .  A
C585        C590   1.399       .  A
C585        C599   1.444       .  S
C586        C587   1.403       .  A
C586        C591   1.484       .  S
C587        C588   1.402       .  A
C587        H606   1.085       .  S
C588        C589   1.415       .  A
C588        C600   1.444       .  S
C589        C590   1.404       .  A
C590        H605   1.084       .  S
C591        C592   1.403       .  A
C591        C596   1.409       .  A
C592        C593   1.399       .  A
C592        H607   1.085       .  S
C593        C594   1.412       .  A
C593        C597   1.444       .  S
C594        C595   1.405       .  A
C595        C596   1.401       .  A
C595        H608   1.083       .  S
C596        C598   1.444       .  S
C597        N601   1.157       .  T
C598        N602   1.157       .  T
C599        N604   1.157       .  T
C600        N603   1.157       .  T
C609        C610   1.412       .  A
C609        C614   1.402       .  A
C609        C623   1.444       .  S
C610        C611   1.404   1_556  A
C610        C615   1.489       .  S
C611        C612   1.402       .  A
C611        H630   1.084       .  S
C612        C613   1.410       .  A
C612        C624   1.443       .  S
C613        C614   1.403   1_554  A
C614        H629   1.084       .  S
C615        C616   1.406       .  A
C615        C620   1.412       .  A
C616        C617   1.408       .  A
C616        H631   1.083   1_545  S
C617        C618   1.412       .  A
C617        C621   1.442       .  S
C618        C619   1.402       .  A
C619        C620   1.397       .  A
C619        H632   1.084       .  S
C620        C622   1.445       .  S
C621        N625   1.157   1_545  T
C622        N626   1.157       .  T
C623        N628   1.157       .  T
C624        N627   1.157       .  T
C633        C634   1.408       .  A
C633        C638   1.403       .  A
C633        C647   1.443       .  S
C634        C635   1.402       .  A
C634        C639   1.483       .  S
C635        C636   1.401       .  A
C635        H654   1.085       .  S
C636        C637   1.412       .  A
C636        C648   1.444       .  S
C637        C638   1.405       .  A
C638        H653   1.085       .  S
C639        C640   1.400       .  A
C639        C644   1.408       .  A
C640        C641   1.400       .  A
C640        H655   1.084       .  S
C641        C642   1.416       .  A
C641        C645   1.445       .  S
C642        C643   1.406       .  A
C643        C644   1.403       .  A
C643        H656   1.083       .  S
C644        C646   1.443       .  S
C645        N649   1.157       .  T
C646        N650   1.157       .  T
C647        N652   1.157       .  T
C648        N651   1.157       .  T
C657        C658   1.408       .  A
C657        C662   1.398       .  A
C657        C671   1.444       .  S
C658        C659   1.403       .  A
C658        C663   1.487       .  S
C659        C660   1.406       .  A
C659        H678   1.084       .  S
C660        C661   1.417       .  A
C660        C672   1.443       .  S
C661        C662   1.407       .  A
C662        H677   1.083       .  S
C663        C664   1.402       .  A
C663        C668   1.409       .  A
C664        C665   1.400       .  A
C664        H679   1.086       .  S
C665        C666   1.414       .  A
C665        C669   1.444       .  S
C666        C667   1.407       .  A
C667        C668   1.403       .  A
C667        H680   1.085       .  S
C668        C670   1.443       .  S
C669        N673   1.157       .  T
C670        N674   1.157       .  T
C671        N676   1.157       .  T
C672        N675   1.157       .  T
C681        C682   1.407       .  A
C681        C686   1.400       .  A
C681        C695   1.444       .  S
C682        C683   1.401       .  A
C682        C687   1.480       .  S
C683        C684   1.401       .  A
C683        H702   1.084   1_556  S
C684        C685   1.417       .  A
C684        C696   1.444       .  S
C685        C686   1.405       .  A
C686        H701   1.084       .  S
C687        C688   1.404   1_556  A
C687        C692   1.408       .  A
C688        C689   1.404       .  A
C688        H703   1.085       .  S
C689        C690   1.409       .  A
C689        C693   1.442       .  S
C690        C691   1.402   1_554  A
C691        C692   1.396       .  A
C691        H704   1.086       .  S
C692        C694   1.444       .  S
C693        N697   1.157       .  T
C694        N698   1.157       .  T
C695        N700   1.157       .  T
C696        N699   1.158       .  T
C705        C706   1.408       .  A
C705        C710   1.399       .  A
C705        C719   1.444       .  S
C706        C707   1.402       .  A
C706        C711   1.483       .  S
C707        C708   1.403       .  A
C707        H726   1.083       .  S
C708        C709   1.415       .  A
C708        C720   1.443       .  S
C709        C710   1.407       .  A
C710        H725   1.083       .  S
C711        C712   1.400       .  A
C711        C716   1.409       .  A
C712        C713   1.401       .  A
C712        H727   1.083       .  S
C713        C714   1.417       .  A
C713        C717   1.443       .  S
C714        C715   1.407       .  A
C715        C716   1.400       .  A
C715        H728   1.082       .  S
C716        C718   1.444       .  S
C717        N721   1.157       .  T
C718        N722   1.157       .  T
C719        N724   1.157       .  T
C720        N723   1.157       .  T
C729        C730   1.406       .  A
C729        C734   1.398       .  A
C729        C743   1.445       .  S
C730        C731   1.403       .  A
C730        C735   1.485       .  S
C731        C732   1.407       .  A
C731        H750   1.083       .  S
C732        C733   1.418       .  A
C732        C744   1.443       .  S
C733        C734   1.408       .  A
C734        H749   1.081       .  S
C735        C736   1.402       .  A
C735        C740   1.409       .  A
C736        C737   1.405       .  A
C736        H751   1.083       .  S
C737        C738   1.415       .  A
C737        C741   1.444       .  S
C738        C739   1.405       .  A
C739        C740   1.399       .  A
C739        H752   1.083       .  S
C740        C742   1.444       .  S
C741        N745   1.157       .  T
C742        N746   1.157       .  T
C743        N748   1.157       .  T
C744        N747   1.157       .  T
C753        C754   1.412       .  A
C753        C758   1.402       .  A
C753        C767   1.444       .  S
C754        C755   1.402   1_556  A
C754        C759   1.482   1_556  S
C755        C756   1.395   1_554  A
C755        H774   1.085       .  S
C756        C757   1.410       .  A
C756        C768   1.444       .  S
C757        C758   1.404       .  A
C758        H773   1.084       .  S
C759        C760   1.403       .  A
C759        C764   1.411       .  A
C760        C761   1.399       .  A
C760        H775   1.086   1_554  S
C761        C762   1.413       .  A
C761        C765   1.444       .  S
C762        C763   1.402       .  A
C763        C764   1.399       .  A
C763        H776   1.086       .  S
C764        C766   1.444       .  S
C765        N769   1.157       .  T
C766        N770   1.157       .  T
C767        N772   1.157       .  T
C768        N771   1.157       .  T
C777        C778   1.410   1_455  A
C777        C782   1.404       .  A
C777        C791   1.443       .  S
C778        C779   1.402       .  A
C778        C783   1.486       .  S
C779        C780   1.400       .  A
C779        H798   1.085       .  S
C780        C781   1.411   1_655  A
C780        C792   1.442       .  S
C781        C782   1.403       .  A
C782        H797   1.084       .  S
C783        C784   1.403       .  A
C783        C788   1.406       .  A
C784        C785   1.405       .  A
C784        H799   1.083       .  S
C785        C786   1.418       .  A
C785        C789   1.443       .  S
C786        C787   1.410       .  A
C787        C788   1.401       .  A
C787        H800   1.082       .  S
C788        C790   1.444       .  S
C789        N793   1.158       .  T
C790        N794   1.157       .  T
C791        N796   1.157       .  T
C792        N795   1.157       .  T
C801        C802   1.411       .  A
C801        C806   1.399       .  A
C801        C815   1.443       .  S
C802        C803   1.403       .  A
C802        C807   1.483       .  S
C803        C804   1.397       .  A
C803        H822   1.084       .  S
C804        C805   1.411       .  A
C804        C816   1.445       .  S
C805        C806   1.404       .  A
C806        H821   1.083       .  S
C807        C808   1.401       .  A
C807        C812   1.410       .  A
C808        C809   1.397       .  A
C808        H823   1.084       .  S
C809        C810   1.416       .  A
C809        C813   1.443       .  S
C810        C811   1.407       .  A
C811        C812   1.401       .  A
C811        H824   1.084       .  S
C812        C814   1.444       .  S
C813        N817   1.157       .  T
C814        N818   1.157       .  T
C815        N820   1.157       .  T
C816        N819   1.157       .  T
C825        C826   1.409       .  A
C825        C830   1.401       .  A
C825        C839   1.443       .  S
C826        C827   1.398       .  A
C826        C831   1.476       .  S
C827        C828   1.397       .  A
C827        H846   1.086       .  S
C828        C829   1.415       .  A
C828        C840   1.444       .  S
C829        C830   1.404       .  A
C830        H845   1.085       .  S
C831        C832   1.402       .  A
C831        C836   1.406       .  A
C832        C833   1.400       .  A
C832        H847   1.084       .  S
C833        C834   1.411       .  A
C833        C837   1.443       .  S
C834        C835   1.405       .  A
C835        C836   1.398       .  A
C835        H848   1.084       .  S
C836        C838   1.444       .  S
C837        N841   1.157       .  T
C838        N842   1.157       .  T
C839        N844   1.157       .  T
C840        N843   1.157       .  T
C849        C850   1.414       .  A
C849        C854   1.400   1_565  A
C849        C863   1.444       .  S
C850        C851   1.406   1_565  A
C850        C855   1.489       .  S
C851        C852   1.400       .  A
C851        H870   1.087       .  S
C852        C853   1.406       .  A
C852        C864   1.442       .  S
C853        C854   1.401       .  A
C854        H869   1.086       .  S
C855        C856   1.403       .  A
C855        C860   1.415       .  A
C856        C857   1.398       .  A
C856        H871   1.084       .  S
C857        C858   1.411       .  A
C857        C861   1.444   1_556  S
C858        C859   1.404       .  A
C859        C860   1.403       .  A
C859        H872   1.083       .  S
C860        C862   1.445       .  S
C861        N865   1.157       .  T
C862        N866   1.157       .  T
C863        N868   1.157       .  T
C864        N867   1.157       .  T
C873        C874   1.408       .  A
C873        C878   1.397       .  A
C873        C887   1.444       .  S
C874        C875   1.401       .  A
C874        C879   1.478       .  S
C875        C876   1.401       .  A
C875        H894   1.084       .  S
C876        C877   1.414       .  A
C876        C888   1.444       .  S
C877        C878   1.404       .  A
C878        H893   1.084       .  S
C879        C880   1.399       .  A
C879        C884   1.408       .  A
C880        C881   1.400       .  A
C880        H895   1.086       .  S
C881        C882   1.418       .  A
C881        C885   1.443       .  S
C882        C883   1.406       .  A
C883        C884   1.398       .  A
C883        H896   1.085       .  S
C884        C886   1.444       .  S
C885        N889   1.157   1_556  T
C886        N890   1.157       .  T
C887        N892   1.157       .  T
C888        N891   1.157       .  T
C897        C898   1.415       .  A
C897        C902   1.405       .  A
C897        C911   1.443       .  S
C898        C899   1.404       .  A
C898        C903   1.495       .  S
C899        C900   1.400       .  A
C899        H918   1.083       .  S
C900        C901   1.412       .  A
C900        C912   1.443       .  S
C901        C902   1.404       .  A
C902        H917   1.082       .  S
C903        C904   1.405       .  A
C903        C908   1.413       .  A
C904        C905   1.402       .  A
C904        H919   1.086       .  S
C905        C906   1.412       .  A
C905        C909   1.444       .  S
C906        C907   1.405       .  A
C907        C908   1.405       .  A
C907        H920   1.085       .  S
C908        C910   1.443       .  S
C909        N913   1.157       .  T
C910        N914   1.157       .  T
C911        N916   1.157       .  T
C912        N915   1.157       .  T
C921        C922   1.407       .  A
C921        C926   1.399       .  A
C921        C935   1.444       .  S
C922        C923   1.402       .  A
C922        C927   1.483       .  S
C923        C924   1.404       .  A
C923        H942   1.085       .  S
C924        C925   1.417       .  A
C924        C936   1.444       .  S
C925        C926   1.406       .  A
C926        H941   1.085       .  S
C927        C928   1.402       .  A
C927        C932   1.407       .  A
C928        C929   1.403       .  A
C928        H943   1.084       .  S
C929        C930   1.415       .  A
C929        C933   1.443       .  S
C930        C931   1.407       .  A
C931        C932   1.400       .  A
C931        H944   1.083       .  S
C932        C934   1.444       .  S
C933        N937   1.157       .  T
C934        N938   1.157       .  T
C935        N940   1.157       .  T
C936        N939   1.158       .  T
C945        C946   1.412       .  A
C945        C950   1.405       .  A
C945        C959   1.443       .  S
C946        C947   1.403       .  A
C946        C951   1.489       .  S
C947        C948   1.397       .  A
C947        H966   1.086       .  S
C948        C949   1.413       .  A
C948        C960   1.445       .  S
C949        C950   1.405       .  A
C950        H965   1.085       .  S
C951        C952   1.406       .  A
C951        C956   1.412       .  A
C952        C953   1.401   1_565  A
C952        H967   1.082       .  S
C953        C954   1.408       .  A
C953        C957   1.442       .  S
C954        C955   1.403       .  A
C955        C956   1.400   1_545  A
C955        H968   1.080       .  S
C956        C958   1.443       .  S
C957        N961   1.157       .  T
C958        N962   1.157       .  T
C959        N964   1.157       .  T
C960        N963   1.157       .  T
C969        C970   1.407       .  A
C969        C974   1.400       .  A
C969        C983   1.444       .  S
C970        C971   1.401       .  A
C970        C975   1.481       .  S
C971        C972   1.402       .  A
C971        H990   1.083       .  S
C972        C973   1.415       .  A
C972        C984   1.443       .  S
C973        C974   1.408       .  A
C974        H989   1.082       .  S
C975        C976   1.400       .  A
C975        C980   1.407       .  A
C976        C977   1.402       .  A
C976        H991   1.083       .  S
C977        C978   1.418       .  A
C977        C981   1.443       .  S
C978        C979   1.408       .  A
C979        C980   1.400       .  A
C979        H992   1.082       .  S
C980        C982   1.444       .  S
C981        N985   1.157       .  T
C982        N986   1.157       .  T
C983        N988   1.157       .  T
C984        N987   1.157       .  T
C993        C994   1.408       .  A
C993        C998   1.401       .  A
C993       C1007   1.443       .  S
C994        C995   1.403       .  A
C994        C999   1.485       .  S
C995        C996   1.403       .  A
C995       H1014   1.084       .  S
C996        C997   1.414       .  A
C996       C1008   1.443       .  S
C997        C998   1.406       .  A
C998       H1013   1.084       .  S
C999       C1000   1.401       .  A
C999       C1004   1.410       .  A
C1000      C1001   1.403       .  A
C1000      H1015   1.083       .  S
C1001      C1002   1.415       .  A
C1001      C1005   1.444       .  S
C1002      C1003   1.405       .  A
C1003      C1004   1.403       .  A
C1003      H1016   1.083       .  S
C1004      C1006   1.444       .  S
C1005      N1009   1.157       .  T
C1006      N1010   1.157       .  T
C1007      N1012   1.157       .  T
C1008      N1011   1.157       .  T
C1017      C1018   1.410       .  A
C1017      C1022   1.401       .  A
C1017      C1031   1.443       .  S
C1018      C1019   1.402       .  A
C1018      C1023   1.480       .  S
C1019      C1020   1.396       .  A
C1019      H1038   1.084       .  S
C1020      C1021   1.411       .  A
C1020      C1032   1.445       .  S
C1021      C1022   1.403       .  A
C1022      H1037   1.083       .  S
C1023      C1024   1.403       .  A
C1023      C1028   1.411       .  A
C1024      C1025   1.397       .  A
C1024      H1039   1.085       .  S
C1025      C1026   1.408       .  A
C1025      C1029   1.443       .  S
C1026      C1027   1.404       .  A
C1027      C1028   1.399       .  A
C1027      H1040   1.084       .  S
C1028      C1030   1.445       .  S
C1029      N1033   1.157   1_655  T
C1030      N1034   1.157   1_554  T
C1031      N1036   1.157       .  T
C1032      N1035   1.157       .  T
C1041      C1042   1.409       .  A
C1041      C1046   1.395       .  A
C1041      C1055   1.445       .  S
C1042      C1043   1.404       .  A
C1042      C1047   1.487       .  S
C1043      C1044   1.404       .  A
C1043      H1062   1.084       .  S
C1044      C1045   1.416       .  A
C1044      C1056   1.444       .  S
C1045      C1046   1.407       .  A
C1046      H1061   1.081       .  S
C1047      C1048   1.404       .  A
C1047      C1052   1.411       .  A
C1048      C1049   1.401       .  A
C1048      H1063   1.086       .  S
C1049      C1050   1.411       .  A
C1049      C1053   1.443       .  S
C1050      C1051   1.402       .  A
C1051      C1052   1.399       .  A
C1051      H1064   1.086       .  S
C1052      C1054   1.444       .  S
C1053      N1057   1.157       .  T
C1054      N1058   1.157       .  T
C1055      N1060   1.157       .  T
C1056      N1059   1.157       .  T
C1065      C1066   1.408       .  A
C1065      C1070   1.397       .  A
C1065      C1079   1.443       .  S
C1066      C1067   1.402       .  A
C1066      C1071   1.480       .  S
C1067      C1068   1.403       .  A
C1067      H1086   1.083       .  S
C1068      C1069   1.412       .  A
C1068      C1080   1.442       .  S
C1069      C1070   1.402       .  A
C1070      H1085   1.083       .  S
C1071      C1072   1.399       .  A
C1071      C1076   1.410       .  A
C1072      C1073   1.401       .  A
C1072      H1087   1.085       .  S
C1073      C1074   1.416       .  A
C1073      C1077   1.443       .  S
C1074      C1075   1.405       .  A
C1075      C1076   1.402       .  A
C1075      H1088   1.085       .  S
C1076      C1078   1.445       .  S
C1077      N1081   1.157       .  T
C1078      N1082   1.157       .  T
C1079      N1084   1.157       .  T
C1080      N1083   1.157       .  T
C1089      C1090   1.410       .  A
C1089      C1094   1.399       .  A
C1089      C1103   1.444       .  S
C1090      C1091   1.401       .  A
C1090      C1095   1.481       .  S
C1091      C1092   1.401       .  A
C1091      H1110   1.085       .  S
C1092      C1093   1.413       .  A
C1092      C1104   1.444       .  S
C1093      C1094   1.402       .  A
C1094      H1109   1.085       .  S
C1095      C1096   1.404       .  A
C1095      C1100   1.407       .  A
C1096      C1097   1.403       .  A
C1096      H1111   1.083       .  S
C1097      C1098   1.410       .  A
C1097      C1101   1.443   1_556  S
C1098      C1099   1.404       .  A
C1099      C1100   1.397       .  A
C1099      H1112   1.084       .  S
C1100      C1102   1.444       .  S
C1101      N1105   1.157       .  T
C1102      N1106   1.157       .  T
C1103      N1108   1.157   1_556  T
C1104      N1107   1.157       .  T
C1113      C1114   1.412       .  A
C1113      C1118   1.402       .  A
C1113      C1127   1.445       .  S
C1114      C1115   1.405       .  A
C1114      C1119   1.492       .  S
C1115      C1116   1.405       .  A
C1115      H1134   1.084       .  S
C1116      C1117   1.413       .  A
C1116      C1128   1.443       .  S
C1117      C1118   1.405       .  A
C1118      H1133   1.084       .  S
C1119      C1120   1.406   1_565  A
C1119      C1124   1.413       .  A
C1120      C1121   1.405       .  A
C1120      H1135   1.084       .  S
C1121      C1122   1.411       .  A
C1121      C1125   1.442       .  S
C1122      C1123   1.402       .  A
C1123      C1124   1.399   1_545  A
C1123      H1136   1.084       .  S
C1124      C1126   1.444       .  S
C1125      N1129   1.157       .  T
C1126      N1130   1.157       .  T
C1127      N1132   1.157       .  T
C1128      N1131   1.157       .  T
C1137      C1138   1.410       .  A
C1137      C1142   1.396       .  A
C1137      C1151   1.445       .  S
C1138      C1139   1.402       .  A
C1138      C1143   1.482       .  S
C1139      C1140   1.401       .  A
C1139      H1158   1.083       .  S
C1140      C1141   1.416       .  A
C1140      C1152   1.443       .  S
C1141      C1142   1.405       .  A
C1142      H1157   1.081       .  S
C1143      C1144   1.404       .  A
C1143      C1148   1.411       .  A
C1144      C1145   1.398       .  A
C1144      H1159   1.084       .  S
C1145      C1146   1.410       .  A
C1145      C1149   1.443       .  S
C1146      C1147   1.401       .  A
C1147      C1148   1.397       .  A
C1147      H1160   1.084       .  S
C1148      C1150   1.444       .  S
C1149      N1153   1.157   1_655  T
C1150      N1154   1.157       .  T
C1151      N1156   1.157       .  T
C1152      N1155   1.157       .  T
C1161      C1162   1.411       .  A
C1161      C1166   1.401       .  A
C1161      C1175   1.444       .  S
C1162      C1163   1.404       .  A
C1162      C1167   1.492       .  S
C1163      C1164   1.403       .  A
C1163      H1182   1.085       .  S
C1164      C1165   1.415       .  A
C1164      C1176   1.443       .  S
C1165      C1166   1.408       .  A
C1166      H1181   1.084       .  S
C1167      C1168   1.405       .  A
C1167      C1172   1.411       .  A
C1168      C1169   1.405       .  A
C1168      H1183   1.083       .  S
C1169      C1170   1.415       .  A
C1169      C1173   1.443       .  S
C1170      C1171   1.406       .  A
C1171      C1172   1.401       .  A
C1171      H1184   1.082       .  S
C1172      C1174   1.444       .  S
C1173      N1177   1.157       .  T
C1174      N1178   1.157       .  T
C1175      N1180   1.157       .  T
C1176      N1179   1.157       .  T
C1185      C1186   1.407       .  A
C1185      C1190   1.398       .  A
C1185      C1199   1.444       .  S
C1186      C1187   1.402       .  A
C1186      C1191   1.478       .  S
C1187      C1188   1.401       .  A
C1187      H1206   1.085   1_556  S
C1188      C1189   1.413       .  A
C1188      C1200   1.444       .  S
C1189      C1190   1.405       .  A
C1190      H1205   1.084       .  S
C1191      C1192   1.399   1_556  A
C1191      C1196   1.411       .  A
C1192      C1193   1.397       .  A
C1192      H1207   1.084       .  S
C1193      C1194   1.411       .  A
C1193      C1197   1.442       .  S
C1194      C1195   1.401   1_554  A
C1195      C1196   1.401       .  A
C1195      H1208   1.083       .  S
C1196      C1198   1.444       .  S
C1197      N1201   1.157   1_655  T
C1198      N1202   1.157       .  T
C1199      N1204   1.157       .  T
C1200      N1203   1.157       .  T
C1209      C1210   1.412       .  A
C1209      C1214   1.401       .  A
C1209      C1223   1.444       .  S
C1210      C1211   1.405       .  A
C1210      C1215   1.493       .  S
C1211      C1212   1.400       .  A
C1211      H1230   1.083       .  S
C1212      C1213   1.416       .  A
C1212      C1224   1.444       .  S
C1213      C1214   1.407       .  A
C1214      H1229   1.082       .  S
C1215      C1216   1.406       .  A
C1215      C1220   1.414       .  A
C1216      C1217   1.402       .  A
C1216      H1231   1.083       .  S
C1217      C1218   1.410       .  A
C1217      C1221   1.443       .  S
C1218      C1219   1.402       .  A
C1219      C1220   1.400       .  A
C1219      H1232   1.084       .  S
C1220      C1222   1.445       .  S
C1221      N1225   1.157       .  T
C1222      N1226   1.157       .  T
C1223      N1228   1.157       .  T
C1224      N1227   1.158       .  T
C1233      C1234   1.412       .  A
C1233      C1238   1.396   1_565  A
C1233      C1247   1.445       .  S
C1234      C1235   1.407   1_554  A
C1234      C1239   1.490       .  S
C1235      C1236   1.407   1_565  A
C1235      H1254   1.085       .  S
C1236      C1237   1.409   1_556  A
C1236      C1248   1.441       .  S
C1237      C1238   1.400       .  A
C1238      H1253   1.086       .  S
C1239      C1240   1.404       .  A
C1239      C1244   1.412       .  A
C1240      C1241   1.400       .  A
C1240      H1255   1.085       .  S
C1241      C1242   1.410       .  A
C1241      C1245   1.444       .  S
C1242      C1243   1.405       .  A
C1243      C1244   1.405       .  A
C1243      H1256   1.085       .  S
C1244      C1246   1.444       .  S
C1245      N1249   1.157       .  T
C1246      N1250   1.157       .  T
C1247      N1252   1.157       .  T
C1248      N1251   1.157       .  T
C1257      C1258   1.412       .  A
C1257      C1262   1.400       .  A
C1257      C1271   1.444       .  S
C1258      C1259   1.406       .  A
C1258      C1263   1.496       .  S
C1259      C1260   1.407       .  A
C1259      H1278   1.084       .  S
C1260      C1261   1.416       .  A
C1260      C1272   1.444       .  S
C1261      C1262   1.404       .  A
C1262      H1277   1.085       .  S
C1263      C1264   1.404       .  A
C1263      C1268   1.412       .  A
C1264      C1265   1.401       .  A
C1264      H1279   1.086       .  S
C1265      C1266   1.415       .  A
C1265      C1269   1.443       .  S
C1266      C1267   1.409       .  A
C1267      C1268   1.405       .  A
C1267      H1280   1.085       .  S
C1268      C1270   1.444       .  S
C1269      N1273   1.157       .  T
C1270      N1274   1.157       .  T
C1271      N1276   1.157       .  T
C1272      N1275   1.157       .  T
C1281      C1282   1.409       .  A
C1281      C1286   1.399       .  A
C1281      C1295   1.444       .  S
C1282      C1283   1.402   1_556  A
C1282      C1287   1.482   1_556  S
C1283      C1284   1.402   1_554  A
C1283      H1302   1.085       .  S
C1284      C1285   1.414       .  A
C1284      C1296   1.443       .  S
C1285      C1286   1.405       .  A
C1286      H1301   1.084       .  S
C1287      C1288   1.401   1_554  A
C1287      C1292   1.408       .  A
C1288      C1289   1.401   1_556  A
C1288      H1303   1.086       .  S
C1289      C1290   1.416       .  A
C1289      C1293   1.443   1_554  S
C1290      C1291   1.407       .  A
C1291      C1292   1.400       .  A
C1291      H1304   1.085       .  S
C1292      C1294   1.444       .  S
C1293      N1297   1.157       .  T
C1294      N1298   1.157       .  T
C1295      N1300   1.157       .  T
C1296      N1299   1.157       .  T
