geometry optimzed in LAMMPS
_audit_creation_date              2020-11-30 
_audit_creation_method            'lammps2cif' 
_symmetry_space_group_name_H-M    'P1' 
_symmetry_Int_Tables_number       1 
_symmetry_cell_setting            triclinic 
loop_ 
_symmetry_equiv_pos_as_xyz 
  x,y,z 
_cell_length_a                    81.14019213 
_cell_length_b                    81.15226430992115 
_cell_length_c                    81.14024835900268 
_cell_angle_alpha                 89.97379590164779 
_cell_angle_beta                  89.95864571135013 
_cell_angle_gamma                 89.99587887863711 
loop_ 
_atom_site_label 
_atom_site_type_symbol 
_atom_site_fract_x 
_atom_site_fract_y 
_atom_site_fract_z 
_atom_site_charge 
N1          N  0.41472013  0.37683406  0.10114773    -0.26900
N2          N  0.40066943  0.36966850  0.10520690    -0.34800
C3          C  0.39105863  0.36859870  0.09176592     0.01400
C4          C  0.39953771  0.37514337  0.07845259     0.07400
C5          C  0.41444684  0.38040312  0.08496137    -0.05700
H6          H  0.37859439  0.36391244  0.09190369     0.08100
H7          H  0.42434912  0.38650571  0.07843930     0.09300
Cu8        Cu  0.39493175  0.36181893  0.12882079     0.44200
Cu9        Cu  0.43330361  0.38205920  0.11795432     0.42000
Cu10       Cu  0.42600240  0.36810996  0.15989274     0.43900
N11         N  0.39201867  0.35481246  0.15320223    -0.34300
N12         N  0.40350888  0.35690217  0.16454402    -0.28600
C13         C  0.39781360  0.35132755  0.17907919    -0.04700
C14         C  0.38200549  0.34532920  0.17675331     0.07600
C15         C  0.37867673  0.34791203  0.16022693     0.01300
H16         H  0.40450465  0.35208220  0.19057808     0.09000
H17         H  0.36735533  0.34506604  0.15379520     0.08100
N18         N  0.44676704  0.38110409  0.15261251    -0.35800
N19         N  0.44944853  0.38622800  0.13737310    -0.27900
C20         C  0.46390864  0.39432477  0.13688564    -0.03200
C21         C  0.47054423  0.39448070  0.15260656     0.05400
C22         C  0.45941326  0.38582531  0.16221072     0.03500
H23         H  0.46919071  0.39974401  0.12590027     0.08600
H24         H  0.46053750  0.38286208  0.17515772     0.07500
N25         N  0.37688302  0.16438986  0.44225725    -0.26900
N26         N  0.36955236  0.17884070  0.44068621    -0.34800
C27         C  0.37162394  0.18748377  0.45466270     0.01400
C28         C  0.38096587  0.17812288  0.46547145     0.07400
C29         C  0.38392143  0.16349778  0.45719897    -0.05700
H30         H  0.36633524  0.19950832  0.45685261     0.08100
H31         H  0.39064599  0.15291136  0.46172731     0.09300
Cu32       Cu  0.35754907  0.18633754  0.41945125     0.44200
Cu33       Cu  0.37654012  0.14621038  0.42442394     0.42000
Cu34       Cu  0.35857726  0.15718388  0.38554038     0.43900
N35         N  0.34881864  0.19141508  0.39600922    -0.34300
N36         N  0.34941336  0.18079785  0.38367909    -0.28600
C37         C  0.34379748  0.18810173  0.36994896    -0.04700
C38         C  0.33933651  0.20407952  0.37379641     0.07600
C39         C  0.34280586  0.20580593  0.39041501     0.01300
H40         H  0.34332543  0.18229254  0.35795834     0.09000
H41         H  0.34180033  0.21688920  0.39774145     0.08100
N42         N  0.36749638  0.13397672  0.39069003    -0.35800
N43         N  0.37386765  0.12984096  0.40509722    -0.27900
C44         C  0.37790777  0.11378582  0.40480820    -0.03200
C45         C  0.37396842  0.10767496  0.38944307     0.05400
C46         C  0.36740774  0.12072547  0.38076888     0.03500
H47         H  0.38330935  0.10709191  0.41499451     0.08600
H48         H  0.36275612  0.12057570  0.36827813     0.07500
C49         C  0.28469498  0.31388831  0.28807057     0.03500
C50         C  0.29382074  0.31820619  0.27402096    -0.12700
C51         C  0.30834759  0.30972705  0.26998683     0.01000
C52         C  0.31341538  0.29644730  0.27984648    -0.11200
C53         C  0.30432593  0.29195944  0.29386472     0.03500
C54         C  0.28982980  0.30051907  0.29773594    -0.10600
H55         H  0.28977402  0.32838547  0.26637924     0.09100
H56         H  0.32460462  0.28981058  0.27680633     0.06600
H57         H  0.28272961  0.29698841  0.30849481     0.06500
N58         N  0.14809251  0.46023596  0.34691555    -0.26900
N59         N  0.16388328  0.45733899  0.34415018    -0.34800
C60         C  0.17256530  0.47101008  0.34777374     0.01400
C61         C  0.16167096  0.48316339  0.35289079     0.07400
C62         C  0.14630254  0.47577781  0.35232969    -0.05700
H63         H  0.18583943  0.47188669  0.34700160     0.08100
H64         H  0.13461377  0.48134319  0.35552093     0.09300
Cu65       Cu  0.17269872  0.43489323  0.33545303     0.44200
Cu66       Cu  0.12954673  0.44303231  0.34339462     0.42000
Cu67       Cu  0.14183356  0.40282238  0.32920644     0.43900
N68         N  0.17796293  0.41145176  0.32652863    -0.34300
N69         N  0.16677069  0.39978567  0.32445125    -0.28600
C70         C  0.17424092  0.38605026  0.31895808    -0.04700
C71         C  0.19089615  0.38926139  0.31727424     0.07600
C72         C  0.19283596  0.40544821  0.32230692     0.01300
H73         H  0.16800253  0.37455166  0.31639655     0.09000
H74         H  0.20425980  0.41224595  0.32326002     0.08100
N75         N  0.11760375  0.40908775  0.33444392    -0.35800
N76         N  0.11310244  0.42385793  0.33960338    -0.27900
C77         C  0.09672598  0.42392885  0.34216784    -0.03200
C78         C  0.09055253  0.40850128  0.33825971     0.05400
C79         C  0.10420696  0.39936574  0.33357797     0.03500
H80         H  0.08983227  0.43441757  0.34666715     0.08600
H81         H  0.10450685  0.38646024  0.33027303     0.07500
N82         N  0.36072771  0.41137424  0.93841949    -0.26900
N83         N  0.35393523  0.39672400  0.93640592    -0.34800
C84         C  0.35450807  0.38842758  0.95074077     0.01400
C85         C  0.36174092  0.39849004  0.96242385     0.07400
C86         C  0.36567353  0.41288388  0.95414790    -0.05700
H87         H  0.35002112  0.37599651  0.95251243     0.08100
H88         H  0.37201988  0.42351427  0.95907376     0.09300
Cu89       Cu  0.34458337  0.38879226  0.91415013     0.44200
Cu90       Cu  0.36319953  0.42835891  0.91950735     0.42000
Cu91       Cu  0.34888829  0.41587383  0.87882374     0.43900
N92         N  0.33827913  0.38233158  0.89040301    -0.34300
N93         N  0.34047415  0.39179138  0.87733791    -0.28600
C94         C  0.33707776  0.38297826  0.86370820    -0.04700
C95         C  0.33224936  0.36726730  0.86847570     0.07600
C96         C  0.33320277  0.36740647  0.88550914     0.01300
H97         H  0.33894356  0.38746194  0.85130314     0.09000
H98         H  0.33102919  0.35718537  0.89379046     0.08100
N99         N  0.35765518  0.43923534  0.88433148    -0.35800
N100        N  0.36330176  0.44358012  0.89899195    -0.27900
C101        C  0.36890140  0.45915105  0.89821614    -0.03200
C102        C  0.36640309  0.46494783  0.88240679     0.05400
C103        C  0.35930485  0.45202016  0.87390257     0.03500
H104        H  0.37448247  0.46572543  0.90838020     0.08600
H105        H  0.35609039  0.45173651  0.86096877     0.07500
N106        N  0.15312687  0.09421514  0.83607023    -0.26900
N107        N  0.16906047  0.09625935  0.83338687    -0.34800
C108        C  0.17700063  0.08222140  0.83718112     0.01400
C109        C  0.16553994  0.07083217  0.84269446     0.07400
C110        C  0.15049187  0.07881035  0.84154612    -0.05700
H111        H  0.19021426  0.08059138  0.83644629     0.08100
H112        H  0.13847840  0.07389580  0.84454597     0.09300
Cu113      Cu  0.17934861  0.11820310  0.82532177     0.44200
Cu114      Cu  0.13581778  0.11279159  0.83362127     0.42000
Cu115      Cu  0.15090262  0.15173553  0.81818965     0.43900
N116        N  0.18642428  0.14133067  0.81711295    -0.34300
N117        N  0.17595918  0.15344176  0.81409938    -0.28600
C118        C  0.18443196  0.16697787  0.80970050    -0.04700
C119        C  0.20103987  0.16318573  0.80991403     0.07600
C120        C  0.20185877  0.14687049  0.81479528     0.01300
H121        H  0.17894207  0.17891637  0.80744981     0.09000
H122        H  0.21288650  0.13969514  0.81696466     0.08100
N123        N  0.12711326  0.14812401  0.82647209    -0.35800
N124        N  0.12162294  0.13394299  0.83230349    -0.27900
C125        C  0.10611268  0.13599283  0.83774969    -0.03200
C126        C  0.10171273  0.15229870  0.83536490     0.05400
C127        C  0.11524902  0.15956938  0.82799892     0.03500
H128        H  0.09865280  0.12632315  0.84309468     0.08600
H129        H  0.11657107  0.17236182  0.82447653     0.07500
C130        C  0.29657494  0.24053781  0.79416348     0.03500
C131        C  0.30014210  0.25390806  0.80453823    -0.12700
C132        C  0.31266175  0.26514564  0.80040813     0.01000
C133        C  0.32162959  0.26279697  0.78580916    -0.11200
C134        C  0.31878588  0.24896388  0.77592860     0.03500
C135        C  0.30616445  0.23796090  0.78003585    -0.10600
H136        H  0.29306411  0.25563553  0.81573839     0.09100
H137        H  0.33094087  0.27165182  0.78216526     0.06600
H138        H  0.30361788  0.22756355  0.77204527     0.06500
N139        N  0.46414191  0.19228150  0.64174960    -0.26900
N140        N  0.46190909  0.19879378  0.65651515    -0.34800
C141        C  0.47592243  0.19739287  0.66519975     0.01400
C142        C  0.48741507  0.18943014  0.65549239     0.07400
C143        C  0.47959364  0.18645678  0.64067742    -0.05700
H144        H  0.47772808  0.20216740  0.67751496     0.08100
H145        H  0.48497064  0.18122760  0.62965015     0.09300
Cu146      Cu  0.44029475  0.20991447  0.66405867     0.44200
Cu147      Cu  0.44694174  0.19319312  0.62305177     0.42000
Cu148      Cu  0.40937909  0.21478036  0.63256775     0.43900
N149        N  0.41693560  0.21895864  0.66856440    -0.34300
N150        N  0.40554783  0.22049054  0.65702991    -0.28600
C151        C  0.39136111  0.22537766  0.66401852    -0.04700
C152        C  0.39398693  0.22697337  0.68075105     0.07600
C153        C  0.41034912  0.22297640  0.68321787     0.01300
H154        H  0.37993801  0.22732867  0.65743794     0.09000
H155        H  0.41679945  0.22238277  0.69486888     0.08100
N156        N  0.41512133  0.20613995  0.60937149    -0.35800
N157        N  0.42874297  0.19791852  0.60593773    -0.27900
C158        C  0.42853626  0.19354818  0.58997990    -0.03200
C159        C  0.41397645  0.19913429  0.58309598     0.05400
C160        C  0.40586868  0.20725389  0.59570421     0.03500
H161        H  0.43817494  0.18662246  0.58389848     0.08600
H162        H  0.39417087  0.21360094  0.59504490     0.07500
N163        N  0.95125825  0.37223891  0.37693129    -0.26900
N164        N  0.94770550  0.36769540  0.36169803    -0.34800
C165        C  0.96153214  0.36778458  0.35256565     0.01400
C166        C  0.97453232  0.37231302  0.36255743     0.07400
C167        C  0.96757425  0.37513655  0.37792263    -0.05700
H168        H  0.96201730  0.36509270  0.33951609     0.08100
H169        H  0.97378738  0.37970036  0.38879634     0.09300
Cu170      Cu  0.92416006  0.36258837  0.35355630     0.44200
Cu171      Cu  0.93327341  0.37577699  0.39499662     0.42000
Cu172      Cu  0.89055553  0.37179456  0.38052534     0.43900
N173        N  0.89977213  0.36023326  0.34675529    -0.34300
N174        N  0.88730320  0.36410692  0.35648021    -0.28600
C175        C  0.87311665  0.36212936  0.34814122    -0.04700
C176        C  0.87693973  0.35676926  0.33240557     0.07600
C177        C  0.89391291  0.35554679  0.33201795     0.01300
H178        H  0.86097852  0.36432613  0.35318667     0.09000
H179        H  0.90147175  0.35189158  0.32166142     0.08100
N180        N  0.89712266  0.37819903  0.40426471    -0.35800
N181        N  0.91245330  0.37947517  0.40966412    -0.27900
C182        C  0.91207218  0.38310535  0.42584359    -0.03200
C183        C  0.89575511  0.38432360  0.43077349     0.05400
C184        C  0.88665298  0.38098965  0.41678735     0.03500
H185        H  0.92287773  0.38455232  0.43351420     0.08600
H186        H  0.87339580  0.37999662  0.41586500     0.07500
N187        N  0.87924279  0.18084334  0.07661663    -0.26900
N188        N  0.86957295  0.19394722  0.07617831    -0.34800
C189        C  0.87218064  0.20217906  0.06206561     0.01400
C190        C  0.88424389  0.19403450  0.05324843     0.07400
C191        C  0.88836406  0.18046065  0.06275916    -0.05700
H192        H  0.86587896  0.21339758  0.05856961     0.08100
H193        H  0.89706826  0.17083616  0.05970127     0.09300
Cu194      Cu  0.85399994  0.20090316  0.09503584     0.44200
Cu195      Cu  0.87920378  0.16402292  0.09593411     0.42000
Cu196      Cu  0.85424087  0.17535556  0.13123837     0.43900
N197        N  0.84265142  0.20746323  0.11683233    -0.34300
N198        N  0.84286730  0.19810979  0.13014845    -0.28600
C199        C  0.83610152  0.20646377  0.14272225    -0.04700
C200        C  0.83135027  0.22184273  0.13706313     0.07600
C201        C  0.83579769  0.22207242  0.12058186     0.01300
H202        H  0.83541180  0.20195353  0.15524283     0.09000
H203        H  0.83522940  0.23243009  0.11224906     0.08100
N204        N  0.86676939  0.15326807  0.12934649    -0.35800
N205        N  0.87572030  0.14902279  0.11640454    -0.27900
C206        C  0.88103129  0.13346458  0.11845325    -0.03200
C207        C  0.87532582  0.12774057  0.13348417     0.05400
C208        C  0.86626399  0.14060090  0.14002033     0.03500
H209        H  0.88809148  0.12663339  0.10943632     0.08600
H210        H  0.85908144  0.14047108  0.15125855     0.07500
C211        C  0.80584807  0.33337017  0.23385322     0.03500
C212        C  0.79226817  0.34358809  0.23075065    -0.12700
C213        C  0.78201633  0.34061377  0.21718852     0.01000
C214        C  0.78543385  0.32738164  0.20659693    -0.11200
C215        C  0.79893425  0.31699705  0.20965148     0.03500
C216        C  0.80909950  0.32007869  0.22330172    -0.10600
H217        H  0.78961632  0.35379775  0.23894634     0.09100
H218        H  0.77767099  0.32526637  0.19594183     0.06600
H219        H  0.81946644  0.31202955  0.22580326     0.06500
N220        N  0.60599381  0.45128401  0.18362348    -0.26900
N221        N  0.61032810  0.43593417  0.18694165    -0.34800
C222        C  0.59676828  0.42639551  0.18665220     0.01400
C223        C  0.58325146  0.43625727  0.18313827     0.07400
C224        C  0.58964441  0.45192883  0.18117368    -0.05700
H225        H  0.59690046  0.41315322  0.18812672     0.08100
H226        H  0.58297441  0.46295487  0.17774809     0.09300
Cu227      Cu  0.63457421  0.42852677  0.19093415     0.44200
Cu228      Cu  0.62232025  0.47057153  0.18087152     0.42000
Cu229      Cu  0.66479632  0.46145603  0.18741991     0.43900
N230        N  0.65967240  0.42543114  0.19531425    -0.34300
N231        N  0.67041853  0.43766364  0.19455409    -0.28600
C232        C  0.68551428  0.43188745  0.19806779    -0.04700
C233        C  0.68429484  0.41521217  0.20119894     0.07600
C234        C  0.66776599  0.41144964  0.19916410     0.01300
H235        H  0.69666280  0.43918427  0.19771940     0.09000
H236        H  0.66208432  0.39943820  0.20025777     0.08100
N237        N  0.65666610  0.48383497  0.17838039    -0.35800
N238        N  0.64091464  0.48723984  0.17614363    -0.27900
C239        C  0.63950508  0.50240774  0.16966587    -0.03200
C240        C  0.65516274  0.50877284  0.16751462     0.05400
C241        C  0.66575776  0.49673087  0.17332529     0.03500
H242        H  0.62795853  0.50820195  0.16637254     0.08600
H243        H  0.67906425  0.49726618  0.17385894     0.07500
N244        N  0.90093065  0.98846993  0.18173553    -0.26900
N245        N  0.88498538  0.98524487  0.18227981    -0.34800
C246        C  0.87659532  0.99885836  0.17785776     0.01400
C247        C  0.88782795  0.01133885  0.17457326     0.07400
C248        C  0.90312565  0.00418828  0.17706648    -0.05700
H249        H  0.86335326  0.99935314  0.17652897     0.08100
H250        H  0.91504464  0.00990827  0.17533676     0.09300
Cu251      Cu  0.87564827  0.96224538  0.18852791     0.44200
Cu252      Cu  0.91910876  0.97108348  0.18580461     0.42000
Cu253      Cu  0.90582502  0.92931007  0.19336518     0.43900
N254        N  0.86977037  0.93829751  0.19541684    -0.34300
N255        N  0.88068288  0.92631039  0.19709805    -0.28600
C256        C  0.87278432  0.91242114  0.20154668    -0.04700
C257        C  0.85612108  0.91586228  0.20295893     0.07600
C258        C  0.85467322  0.93235221  0.19878633     0.01300
H259        H  0.87874962  0.90068380  0.20365189     0.09000
H260        H  0.84343815  0.93945997  0.19786339     0.08100
N261        N  0.93023416  0.93589170  0.18941696    -0.35800
N262        N  0.93507757  0.95125866  0.18702506    -0.27900
C263        C  0.95144753  0.95146120  0.18450267    -0.03200
C264        C  0.95717711  0.93542721  0.18511258     0.05400
C265        C  0.94341544  0.92588108  0.18840894     0.03500
H266        H  0.95857549  0.96242558  0.18188614     0.08600
H267        H  0.94297700  0.91264494  0.18991294     0.07500
N268        N  0.68624336  0.67892776  0.06997141    -0.26900
N269        N  0.69259191  0.69358715  0.07314740    -0.34800
C270        C  0.69038707  0.70344162  0.05999304     0.01400
C271        C  0.68228955  0.69453692  0.04793056     0.07400
C272        C  0.67972397  0.67910128  0.05473560    -0.05700
H273        H  0.69400118  0.71626021  0.05945097     0.08100
H274        H  0.67349568  0.66878075  0.04905028     0.09300
Cu275      Cu  0.70308954  0.69978063  0.09555648     0.44200
Cu276      Cu  0.68623363  0.65959101  0.08677256     0.42000
Cu277      Cu  0.70093288  0.66940762  0.12803946     0.43900
N278        N  0.71143470  0.70385615  0.11931805    -0.34300
N279        N  0.71028062  0.69294796  0.13136755    -0.28600
C280        C  0.71572831  0.69984849  0.14542915    -0.04700
C281        C  0.72080195  0.71575923  0.14195790     0.07600
C282        C  0.71778626  0.71790683  0.12532634     0.01300
H283        H  0.71578987  0.69381473  0.15732215     0.09000
H284        H  0.71944813  0.72908233  0.11824350     0.08100
N285        N  0.69135901  0.64670518  0.12130205    -0.35800
N286        N  0.68623396  0.64300460  0.10629058    -0.27900
C287        C  0.68076084  0.62735007  0.10618859    -0.03200
C288        C  0.68227616  0.62095740  0.12196608     0.05400
C289        C  0.68922095  0.63355356  0.13113410     0.03500
H290        H  0.67622871  0.62109413  0.09534229     0.08600
H291        H  0.69232117  0.63325746  0.14409821     0.07500
C292        C  0.74773763  0.81156314  0.21558966     0.03500
C293        C  0.73803031  0.81350237  0.22975396    -0.12700
C294        C  0.74066622  0.82680879  0.24038588     0.01000
C295        C  0.75322865  0.83814208  0.23698518    -0.11200
C296        C  0.76312950  0.83623652  0.22295434     0.03500
C297        C  0.76039668  0.82289548  0.21226523    -0.10600
H298        H  0.72837645  0.80467117  0.23247581     0.09100
H299        H  0.75537763  0.84835980  0.24531398     0.06600
H300        H  0.76808358  0.82133690  0.20144862     0.06500
N301        N  0.63617939  0.87620037  0.41444112    -0.26900
N302        N  0.65142957  0.87370755  0.40929731    -0.34800
C303        C  0.66192084  0.87848724  0.42122127     0.01400
C304        C  0.65281078  0.88438096  0.43444924     0.07400
C305        C  0.63653299  0.88250032  0.42973243    -0.05700
H306        H  0.67519600  0.87754115  0.42040986     0.08100
H307        H  0.62566392  0.88495605  0.43704019     0.09300
Cu308      Cu  0.65698186  0.86324530  0.38655681     0.44200
Cu309      Cu  0.61540035  0.87105806  0.40068134     0.42000
Cu310      Cu  0.62138962  0.85409917  0.36039858     0.43900
N311        N  0.65857904  0.85282539  0.36318284    -0.34300
N312        N  0.64570858  0.84983426  0.35366287    -0.28600
C313        C  0.65101923  0.84411644  0.33904989    -0.04700
C314        C  0.66807691  0.84307694  0.33939925     0.07600
C315        C  0.67239507  0.84887268  0.35490300     0.01300
H316        H  0.64298838  0.84168677  0.32871895     0.09000
H317        H  0.68471935  0.85043014  0.35973071     0.08100
N318        N  0.59835243  0.86023415  0.36967967    -0.35800
N319        N  0.59627832  0.86665985  0.38447696    -0.27900
C320        C  0.58031841  0.87051289  0.38655275    -0.03200
C321        C  0.57174779  0.86601999  0.37248491     0.05400
C322        C  0.58368063  0.85968240  0.36197909     0.03500
H323        H  0.57556133  0.87695413  0.39719961     0.08600
H324        H  0.58192231  0.85540719  0.34948029     0.07500
N325        N  0.97192592  0.21197977  0.87859418    -0.26900
N326        N  0.96909905  0.21702106  0.86336715    -0.34800
C327        C  0.98214729  0.21312886  0.85388886     0.01400
C328        C  0.99377285  0.20555945  0.86377669     0.07400
C329        C  0.98687927  0.20494974  0.87931154    -0.05700
H330        H  0.98312795  0.21568787  0.84083650     0.08100
H331        H  0.99219573  0.19950981  0.89026211     0.09300
Cu332      Cu  0.94766208  0.22909221  0.85658861     0.44200
Cu333      Cu  0.95518381  0.21420321  0.89758493     0.42000
Cu334      Cu  0.91726352  0.23567692  0.88916527     0.43900
N335        N  0.92525611  0.24084260  0.85322306    -0.34300
N336        N  0.91426345  0.24327418  0.86500921    -0.28600
C337        C  0.90070521  0.25010974  0.85840495    -0.04700
C338        C  0.90332464  0.25221707  0.84167903     0.07600
C339        C  0.91898237  0.24608633  0.83883194     0.01300
H340        H  0.88951618  0.25273871  0.86517404     0.09000
H341        H  0.92500748  0.24456821  0.82703816     0.08100
N342        N  0.92286756  0.22538678  0.91180428    -0.35800
N343        N  0.93668586  0.21729089  0.91474247    -0.27900
C344        C  0.93654738  0.21179042  0.93034999    -0.02400
C345        C  0.92189134  0.21660639  0.93756082     0.05400
C346        C  0.91357719  0.22535113  0.92552780     0.03500
H347        H  0.94650842  0.20503045  0.93607487     0.08600
H348        H  0.90161012  0.23113093  0.92662123     0.07500
N349        N  0.66640001  0.11979748  0.66938159    -0.26900
N350        N  0.68103527  0.12161949  0.67623370    -0.34800
C351        C  0.68986292  0.10780577  0.67378501     0.01400
C352        C  0.68020549  0.09670365  0.66511375     0.07400
C353        C  0.66549912  0.10487113  0.66232863    -0.05700
H354        H  0.70233095  0.10593239  0.67811192     0.08100
H355        H  0.65495729  0.10046595  0.65548920     0.09300
Cu356      Cu  0.68800198  0.14304727  0.68822465     0.44200
Cu357      Cu  0.64814873  0.13740690  0.67039775     0.42000
Cu358      Cu  0.65630449  0.17492749  0.69277486     0.43900
N359        N  0.69212455  0.16629812  0.69794532    -0.34300
N360        N  0.68066354  0.17774903  0.69982160    -0.28600
C361        C  0.68773243  0.19156952  0.70561820    -0.04700
C362        C  0.70443804  0.18872891  0.70720229     0.07600
C363        C  0.70678363  0.17257207  0.70238077     0.01300
H364        H  0.68130272  0.20303903  0.70782332     0.09000
H365        H  0.71834566  0.16595715  0.70179154     0.08100
N366        N  0.63372341  0.16943678  0.68227208    -0.35800
N367        N  0.63098300  0.15578241  0.67384343    -0.27900
C368        C  0.61539398  0.15580370  0.66836923    -0.03200
C369        C  0.60797779  0.17024225  0.67345331     0.05400
C370        C  0.61986027  0.17853253  0.68242801     0.03500
H371        H  0.60978768  0.14584613  0.66151227     0.08600
H372        H  0.61854675  0.19029586  0.68855942     0.07500
C373        C  0.79502662  0.26695895  0.73847285     0.03500
C374        C  0.80611974  0.26443275  0.75151845    -0.12700
C375        C  0.82021931  0.27431980  0.75298253     0.01000
C376        C  0.82329876  0.28669527  0.74138182    -0.11200
C377        C  0.81243115  0.28910195  0.72823619     0.03500
C378        C  0.79832507  0.27929643  0.72681325    -0.10600
H379        H  0.80389293  0.25470147  0.76040059     0.09100
H380        H  0.83430187  0.29421006  0.74238760     0.06600
H381        H  0.79019773  0.28094730  0.71634349     0.06500
N382        N  0.85680599  0.45296658  0.60831861    -0.26900
N383        N  0.85252069  0.44861235  0.62341286    -0.34800
C384        C  0.85413896  0.46166693  0.63345199     0.01400
C385        C  0.85990289  0.47478920  0.62422278     0.07400
C386        C  0.86123671  0.46888820  0.60830701    -0.05700
H387        H  0.85151094  0.46154738  0.64652687     0.08100
H388        H  0.86493909  0.47566307  0.59743888     0.09300
Cu389      Cu  0.84505629  0.42512382  0.62965674     0.44200
Cu390      Cu  0.85681678  0.43722255  0.58842090     0.42000
Cu391      Cu  0.84355758  0.39566409  0.59598797     0.43900
N392        N  0.83905857  0.40057895  0.63253396    -0.34300
N393        N  0.83836194  0.38988472  0.62027249    -0.28600
C394        C  0.83478876  0.37491481  0.62637796    -0.04700
C395        C  0.83306699  0.37629123  0.64327893     0.07600
C396        C  0.83600105  0.39270022  0.64676852     0.01300
H397        H  0.83416225  0.36376810  0.61910380     0.09000
H398        H  0.83615758  0.39845138  0.65879673     0.08100
N399        N  0.85111023  0.40405137  0.57312264    -0.35800
N400        N  0.85614964  0.41929693  0.57046740    -0.27900
C401        C  0.86097852  0.42076722  0.55471440    -0.03200
C402        C  0.85870958  0.40575499  0.54699663     0.05400
C403        C  0.85255875  0.39538200  0.55907812     0.03500
H404        H  0.86594838  0.43190752  0.54932781     0.08600
H405        H  0.84991328  0.38237780  0.55795153     0.07500
N406        N  0.59280172  0.71361414  0.87512265    -0.26900
N407        N  0.59708223  0.71364097  0.85940506    -0.34800
C408        C  0.58410249  0.70888519  0.85025519     0.01400
C409        C  0.57103961  0.70572855  0.86076380     0.07400
C410        C  0.57694718  0.70899948  0.87640523    -0.05700
H411        H  0.58410791  0.70807366  0.83694859     0.08100
H412        H  0.57026690  0.70789662  0.88789563     0.09300
Cu413      Cu  0.62025266  0.72062683  0.85130869     0.44200
Cu414      Cu  0.60894112  0.71907810  0.89412207     0.42000
Cu415      Cu  0.65003364  0.73225814  0.88281473     0.43900
N416        N  0.64387428  0.72889472  0.84632212    -0.34300
N417        N  0.65473432  0.73307908  0.85772384    -0.28600
C418        C  0.66873583  0.73795584  0.85030252    -0.04700
C419        C  0.66654948  0.73676987  0.83344128     0.07600
C420        C  0.65061489  0.73114149  0.83136199     0.01300
H421        H  0.67952366  0.74244813  0.85670762     0.09000
H422        H  0.64433506  0.72894084  0.81981291     0.08100
N423        N  0.64275792  0.72775486  0.90687788    -0.35800
N424        N  0.62783034  0.72260823  0.91092463    -0.27900
C425        C  0.62754638  0.71900397  0.92709214    -0.03200
C426        C  0.64302890  0.72203846  0.93350606     0.05400
C427        C  0.65232821  0.72773308  0.92041331     0.03500
H428        H  0.61699018  0.71407395  0.93358261     0.08600
H429        H  0.66530688  0.73078836  0.92053290     0.07500
N430        N  0.69353428  0.92548675  0.57306914    -0.26900
N431        N  0.69661642  0.90976183  0.57599815    -0.34800
C432        C  0.69304938  0.90095977  0.56241876     0.01400
C433        C  0.68732742  0.91163675  0.55038112     0.07400
C434        C  0.68796736  0.92710659  0.55754451    -0.05700
H435        H  0.69501137  0.88783134  0.56125599     0.08100
H436        H  0.68475630  0.93872264  0.55184005     0.09300
Cu437      Cu  0.70612953  0.90105888  0.59810670     0.44200
Cu438      Cu  0.69769426  0.94412398  0.59003228     0.42000
Cu439      Cu  0.71726044  0.93216374  0.62816413     0.43900
N440        N  0.71539652  0.89575930  0.62136387    -0.34300
N441        N  0.71936731  0.90715622  0.63230124    -0.28600
C442        C  0.72439824  0.89979887  0.64625637    -0.04700
C443        C  0.72350158  0.88294873  0.64402174     0.07600
C444        C  0.71792667  0.88080854  0.62805390     0.01300
H445        H  0.72848334  0.90626753  0.65716745     0.09000
H446        H  0.71562150  0.86923661  0.62185498     0.08100
N447        N  0.71152782  0.95623674  0.62228249    -0.35800
N448        N  0.70402733  0.96058092  0.60850602    -0.27900
C449        C  0.70104877  0.97686198  0.60890845    -0.03200
C450        C  0.70717729  0.98312960  0.62355805     0.05400
C451        C  0.71358133  0.96963055  0.63179172     0.03500
H452        H  0.69430091  0.98346522  0.59950784     0.08600
H453        H  0.71900141  0.96947147  0.64396964     0.07500
C454        C  0.74312324  0.77055739  0.74222392     0.03500
C455        C  0.75680089  0.76072877  0.73829472    -0.12700
C456        C  0.76711069  0.76500833  0.72509173     0.01000
C457        C  0.76396662  0.77939849  0.71610750    -0.11200
C458        C  0.75029871  0.78920550  0.71989955     0.03500
C459        C  0.74002119  0.78488926  0.73309988    -0.10600
H460        H  0.75920052  0.74958287  0.74526298     0.09100
H461        H  0.77187294  0.78269523  0.70584461     0.06600
H462        H  0.72938697  0.79244532  0.73598764     0.06500
N463        N  0.93317159  0.64412560  0.68502260    -0.26900
N464        N  0.92917988  0.65904329  0.69013231    -0.34800
C465        C  0.94296282  0.66809563  0.69157710     0.01400
C466        C  0.95628189  0.65832839  0.68727851     0.07400
C467        C  0.94955849  0.64325794  0.68303660    -0.05700
H468        H  0.94319172  0.68101188  0.69486327     0.08100
H469        H  0.95592507  0.63275975  0.67784973     0.09300
Cu470      Cu  0.90511370  0.66680539  0.69299131     0.44200
Cu471      Cu  0.91619027  0.62627107  0.67911527     0.42000
Cu472      Cu  0.87319097  0.63710481  0.68287399     0.43900
N473        N  0.88019039  0.67195632  0.69344039    -0.34300
N474        N  0.86854845  0.66108971  0.69002774    -0.28600
C475        C  0.85375640  0.66838613  0.69148607    -0.04700
C476        C  0.85625056  0.68467904  0.69577049     0.07600
C477        C  0.87313524  0.68648241  0.69705523     0.01300
H478        H  0.84206405  0.66231456  0.68944044     0.09000
H479        H  0.87981642  0.69744032  0.70063906     0.08100
N480        N  0.88140082  0.61477803  0.67383875    -0.35800
N481        N  0.89715631  0.61096728  0.67237356    -0.27900
C482        C  0.89850440  0.59580033  0.66597941    -0.03200
C483        C  0.88282964  0.58976438  0.66317589     0.05400
C484        C  0.87225907  0.60207135  0.66845092     0.03500
H485        H  0.91007316  0.58958975  0.66364672     0.08600
H486        H  0.85894562  0.60169964  0.66882586     0.07500
N487        N  0.40443997  0.96498001  0.35637379    -0.26900
N488        N  0.38879165  0.96357764  0.35208259    -0.34800
C489        C  0.38136032  0.97825610  0.35405940     0.01400
C490        C  0.39286652  0.98937849  0.35998208     0.07400
C491        C  0.40741208  0.98056189  0.36106792    -0.05700
H492        H  0.36849698  0.98062735  0.35148403     0.08100
H493        H  0.41938410  0.98513060  0.36470967     0.09300
Cu494      Cu  0.37826849  0.94182376  0.34371397     0.44200
Cu495      Cu  0.42122055  0.94586007  0.35584091     0.42000
Cu496      Cu  0.40578078  0.90669821  0.34201538     0.43900
N497        N  0.37081818  0.91826795  0.33708036    -0.34300
N498        N  0.38077118  0.90539779  0.33701332    -0.28600
C499        C  0.37205641  0.89186300  0.33315411    -0.04700
C500        C  0.35574018  0.89632679  0.33066643     0.07600
C501        C  0.35553249  0.91329613  0.33299582     0.01300
H502        H  0.37724333  0.87960522  0.33241493     0.09000
H503        H  0.34528131  0.92152272  0.33159838     0.08100
N504        N  0.43030974  0.91094932  0.34767720    -0.35800
N505        N  0.43586165  0.92522108  0.35315943    -0.27900
C506        C  0.45211179  0.92397147  0.35605273    -0.03200
C507        C  0.45717485  0.90821625  0.35183670     0.05400
C508        C  0.44293373  0.90026365  0.34676428     0.03500
H509        H  0.45953014  0.93376750  0.36118086     0.08600
H510        H  0.44181747  0.88763290  0.34266339     0.07500
N511        N  0.09900030  0.90088363  0.14949122    -0.26900
N512        N  0.10149019  0.89841729  0.16540108    -0.34800
C513        C  0.08758886  0.90202647  0.17368079     0.01400
C514        C  0.07578622  0.90716897  0.16248474     0.07400
C515        C  0.08344643  0.90616563  0.14724676    -0.05700
H516        H  0.08606606  0.90063875  0.18685833     0.08100
H517        H  0.07794103  0.90840103  0.13532039     0.09300
Cu518      Cu  0.12311488  0.88881284  0.17500747     0.44200
Cu519      Cu  0.11652949  0.89605340  0.13141934     0.42000
Cu520      Cu  0.15515240  0.87880811  0.14526087     0.43900
N521        N  0.14461681  0.87638394  0.18097530    -0.34300
N522        N  0.15615794  0.87250937  0.17014304    -0.28600
C523        C  0.16807514  0.86395587  0.17786787    -0.04700
C524        C  0.16379738  0.86221318  0.19433392     0.07600
C525        C  0.14891813  0.87046898  0.19585647     0.01300
H526        H  0.17903147  0.85925922  0.17190135     0.09000
H527        H  0.14183604  0.87236558  0.20696761     0.08100
N528        N  0.15055901  0.88534053  0.12084435    -0.35800
N529        N  0.13622276  0.89117208  0.11573732    -0.27900
C530        C  0.13698084  0.89380645  0.09937121    -0.03200
C531        C  0.15262297  0.88971115  0.09392781     0.05400
C532        C  0.16088212  0.88430536  0.10786788     0.03500
H533        H  0.12698462  0.89867379  0.09201813     0.08600
H534        H  0.17341870  0.87981864  0.10850939     0.07500
C535        C  0.26210079  0.82013620  0.29911805     0.03500
C536        C  0.25897671  0.80550620  0.30787294    -0.12700
C537        C  0.24481163  0.79617118  0.30464439     0.01000
C538        C  0.23383669  0.80120683  0.29231053    -0.11200
C539        C  0.23682925  0.81567661  0.28332438     0.03500
C540        C  0.25074484  0.82527489  0.28708308    -0.10600
H541        H  0.26743918  0.80146033  0.31737978     0.09100
H542        H  0.22279902  0.79406114  0.28997119     0.06600
H543        H  0.25262325  0.83685028  0.28069971     0.06500
N544        N  0.18991806  0.65328726  0.44534974    -0.26900
N545        N  0.19445346  0.66878737  0.44334760    -0.34800
C546        C  0.19211914  0.67691921  0.45763054     0.01400
C547        C  0.18559339  0.66600169  0.46906902     0.07400
C548        C  0.18470707  0.65107759  0.46088921    -0.05700
H549        H  0.19436509  0.68994504  0.45936364     0.08100
H550        H  0.18032557  0.63946037  0.46571958     0.09300
Cu551      Cu  0.20219324  0.67796914  0.42072860     0.44200
Cu552      Cu  0.18881571  0.63625123  0.42650295     0.42000
Cu553      Cu  0.19559542  0.65034723  0.38518526     0.43900
N554        N  0.20751872  0.68402256  0.39640986    -0.34300
N555        N  0.20491947  0.67424215  0.38361669    -0.28600
C556        C  0.20904770  0.68235470  0.36974187    -0.04700
C557        C  0.21434523  0.69802073  0.37396877     0.07600
C558        C  0.21339518  0.69854470  0.39098376     0.01300
H559        H  0.20824725  0.67718595  0.35748567     0.09000
H560        H  0.21632226  0.70891183  0.39883352     0.08100
N561        N  0.18735141  0.62665756  0.39073274    -0.35800
N562        N  0.18536166  0.62151415  0.40605947    -0.27900
C563        C  0.18105427  0.60553794  0.40596410    -0.03200
C564        C  0.18008190  0.60032547  0.38978878     0.05400
C565        C  0.18421223  0.61402325  0.38041855     0.03500
H566        H  0.17904655  0.59816974  0.41689801     0.08600
H567        H  0.18554591  0.61456574  0.36716221     0.07500
N568        N  0.19274699  0.91034081  0.95003332    -0.26900
N569        N  0.19789823  0.89488278  0.94976781    -0.34800
C570        C  0.19671536  0.88860260  0.96511041     0.01400
C571        C  0.19063328  0.90071137  0.97558374     0.07400
C572        C  0.18816056  0.91426705  0.96548274    -0.05700
H573        H  0.19936804  0.87592273  0.96822530     0.08100
H574        H  0.18309827  0.92607523  0.96905011     0.09300
Cu575      Cu  0.20506644  0.88273161  0.92816760     0.44200
Cu576      Cu  0.19128026  0.92526787  0.92926910     0.42000
Cu577      Cu  0.20271530  0.90720163  0.89043878     0.43900
N578        N  0.20958204  0.87335028  0.90456569    -0.34300
N579        N  0.20859783  0.88236121  0.89100829    -0.28600
C580        C  0.21114651  0.87267658  0.87782701    -0.04700
C581        C  0.21365186  0.85669717  0.88320874     0.07600
C582        C  0.21284684  0.85762662  0.90026813     0.01300
H583        H  0.21104175  0.87698839  0.86521285     0.09000
H584        H  0.21398928  0.84751284  0.90888104     0.08100
N585        N  0.19520416  0.93147774  0.89282812    -0.35800
N586        N  0.19086233  0.93803474  0.90708117    -0.27900
C587        C  0.18675645  0.95389403  0.90466145    -0.03200
C588        C  0.18848265  0.95752830  0.88805315     0.05400
C589        C  0.19402127  0.94300671  0.88095813     0.03500
H590        H  0.18289962  0.96222163  0.91433108     0.08600
H591        H  0.19747177  0.94103710  0.86823897     0.07500
N592        N  0.09489299  0.69133958  0.64038696    -0.26900
N593        N  0.09624123  0.70032372  0.65386921    -0.34800
C594        C  0.08201203  0.69969042  0.66226401     0.01400
C595        C  0.07107082  0.68981772  0.65367060     0.07400
C596        C  0.07978797  0.68455676  0.63993020    -0.05700
H597        H  0.07987608  0.70585909  0.67388827     0.08100
H598        H  0.07576475  0.67604315  0.63052604     0.09300
Cu599      Cu  0.11771190  0.71184782  0.66096290     0.44200
Cu600      Cu  0.11368281  0.68908921  0.62330107     0.42000
Cu601      Cu  0.15284019  0.70825141  0.63378920     0.43900
N602        N  0.14111226  0.71959688  0.66705207    -0.34300
N603        N  0.15402032  0.71825862  0.65721227    -0.28600
C604        C  0.16754750  0.72316672  0.66540413    -0.04700
C605        C  0.16287977  0.72792514  0.68111476     0.07600
C606        C  0.14605205  0.72532451  0.68175287     0.01300
H607        H  0.17993351  0.72276590  0.66047492     0.09000
H608        H  0.13809465  0.72655771  0.69238016     0.08100
N609        N  0.14809521  0.69687636  0.61146259    -0.35800
N610        N  0.13377635  0.69011231  0.60762112    -0.27900
C611        C  0.13443441  0.68458776  0.59203260    -0.03200
C612        C  0.14998361  0.68777631  0.58587586     0.05400
C613        C  0.15831627  0.69565369  0.59846643     0.03500
H614        H  0.12427905  0.67883955  0.58559397     0.08600
H615        H  0.17068081  0.70061816  0.59804069     0.07500
C616        C  0.23383864  0.74909218  0.78003190     0.03500
C617        C  0.22970528  0.76079709  0.79204842    -0.12700
C618        C  0.23987530  0.76308580  0.80584879     0.01000
C619        C  0.25391771  0.75311659  0.80780307    -0.11200
C620        C  0.25803638  0.74131172  0.79583483     0.03500
C621        C  0.24808111  0.73954485  0.78186187    -0.10600
H622        H  0.21879739  0.76834654  0.79046901     0.09100
H623        H  0.26171343  0.75465022  0.81853395     0.06600
H624        H  0.25125342  0.73051268  0.77253870     0.06500
N625        N  0.40736929  0.60331937  0.84089972    -0.26900
N626        N  0.39261366  0.60323708  0.83398668    -0.34800
C627        C  0.38616785  0.58801114  0.83535194     0.01400
C628        C  0.39731036  0.57814606  0.84371229     0.07400
C629        C  0.41066519  0.58823032  0.84689659    -0.05700
H630        H  0.37405881  0.58449876  0.83102293     0.08100
H631        H  0.42195428  0.58489153  0.85314709     0.09300
Cu632      Cu  0.38157633  0.62412753  0.82392313     0.44200
Cu633      Cu  0.42243018  0.62385480  0.84216669     0.42000
Cu634      Cu  0.40706604  0.66115607  0.82406907     0.43900
N635        N  0.37334049  0.64721331  0.81624092    -0.34300
N636        N  0.38269487  0.66055788  0.81632199    -0.28600
C637        C  0.37353201  0.67361012  0.81187502    -0.04700
C638        C  0.35761475  0.66833186  0.80873118     0.07600
C639        C  0.35794292  0.65149498  0.81172647     0.01300
H640        H  0.37800709  0.68616244  0.81154474     0.09000
H641        H  0.34757048  0.64312681  0.81161188     0.08100
N642        N  0.43059040  0.65904983  0.83388428    -0.35800
N643        N  0.43601827  0.64539169  0.84088936    -0.27900
C644        C  0.45155705  0.64776226  0.84609723    -0.03200
C645        C  0.45614042  0.66373010  0.84224878     0.05400
C646        C  0.44260566  0.67048463  0.83434481     0.03500
H647        H  0.45910095  0.63840109  0.85178099     0.08600
H648        H  0.44158595  0.68276663  0.82927718     0.07500
C649        C  0.27283407  0.73086540  0.79767200    -0.11600
C650        C  0.27408487  0.71909135  0.81037708     0.03900
C651        C  0.28801206  0.70896987  0.81134739    -0.12100
C652        C  0.30082988  0.71045518  0.79984509     0.18700
C653        C  0.29964997  0.72227013  0.78720909    -0.09200
C654        C  0.28565178  0.73228448  0.78612176    -0.02100
H655        H  0.28887859  0.69991552  0.82112540     0.05300
C656        C  0.31555929  0.69992173  0.80161044     0.20700
H657        H  0.28480208  0.74130249  0.77630562     0.10400
C658        C  0.31657695  0.68501955  0.79292992    -0.15500
C659        C  0.33022899  0.67458786  0.79483172     0.03400
C660        C  0.34306657  0.67900543  0.80574220    -0.10800
C661        C  0.34205647  0.69412842  0.81413689    -0.00900
C662        C  0.32848537  0.70452992  0.81213665    -0.06000
H663        H  0.30674544  0.68154358  0.78459737     0.06400
H664        H  0.35175707  0.69780476  0.82252386     0.09800
Br665      Br  0.31702230  0.72534477  0.77146941    -0.05700
Br666      Br  0.25682903  0.71591002  0.82624383    -0.02700
Br667      Br  0.33110284  0.65517009  0.78136987     0.00200
Br668      Br  0.32808321  0.72498799  0.82396468    -0.04200
C669        C  0.17382218  0.73223163  0.69497614    -0.11600
C670        C  0.16963933  0.74456695  0.70651127     0.03900
C671        C  0.17997878  0.74756759  0.71993712    -0.12100
C672        C  0.19449330  0.73849648  0.72209242     0.18700
C673        C  0.19877443  0.72628109  0.71056979    -0.09200
C674        C  0.18853432  0.72334512  0.69705365    -0.02100
H675        H  0.17668796  0.75702315  0.72877177     0.05300
C676        C  0.20462653  0.74155020  0.73681871     0.20700
H677        H  0.19182613  0.71370240  0.68842957     0.10400
C678        C  0.19900842  0.73582851  0.75212534    -0.15500
C679        C  0.20828857  0.73840728  0.76638507     0.03400
C680        C  0.22341019  0.74682895  0.76538719    -0.10800
C681        C  0.22897264  0.75267820  0.75009636    -0.00900
C682        C  0.21961890  0.75021574  0.73584645    -0.06000
H683        H  0.18744190  0.72920189  0.75293302     0.06400
H684        H  0.24058762  0.75921604  0.74927961     0.09800
Br685      Br  0.21799402  0.71276528  0.71326751    -0.05700
Br686      Br  0.15049193  0.75828159  0.70427548    -0.02700
Br687      Br  0.20016725  0.72971620  0.78682194     0.00200
Br688      Br  0.22753121  0.75918025  0.71543479    -0.04200
C689        C  0.21642605  0.84187020  0.87287884    -0.11600
C690        C  0.20705481  0.83881990  0.85852104     0.03900
C691        C  0.21077830  0.82529949  0.84849518    -0.12100
C692        C  0.22354216  0.81441726  0.85260786     0.18700
C693        C  0.23251750  0.81706795  0.86723258    -0.09200
C694        C  0.22889230  0.83067535  0.87724757    -0.02100
H695        H  0.20368453  0.82327367  0.83736939     0.05300
C696        C  0.22770961  0.80083364  0.84110903     0.20700
H697        H  0.23606564  0.83269585  0.88831842     0.10400
C698        C  0.24277820  0.80134881  0.83263220    -0.15500
C699        C  0.24691969  0.78917504  0.82114899     0.03400
C700        C  0.23592812  0.77608531  0.81804178    -0.10800
C701        C  0.22076093  0.77565394  0.82638242    -0.00900
C702        C  0.21659209  0.78789226  0.83782858    -0.06000
H703        H  0.25122599  0.81146863  0.83473929     0.06400
H704        H  0.21216368  0.76571505  0.82402170     0.09800
Br705      Br  0.24962786  0.80227148  0.87411886    -0.05700
Br706      Br  0.18829812  0.85190495  0.85246085    -0.02700
Br707      Br  0.26718765  0.79166457  0.80918571     0.00200
Br708      Br  0.19574642  0.78624889  0.84888945    -0.04200
C709        C  0.18018614  0.66966231  0.48612240    -0.11600
C710        C  0.16569962  0.66272592  0.49292065     0.03900
C711        C  0.16140620  0.66608408  0.50924683    -0.12100
C712        C  0.17097002  0.67667413  0.51893096     0.18700
C713        C  0.18513603  0.68399107  0.51209944    -0.09200
C714        C  0.18965083  0.68044089  0.49582358    -0.02100
H715        H  0.15033419  0.66063100  0.51436076     0.05300
C716        C  0.16578471  0.68000333  0.53606550     0.20700
H717        H  0.20066109  0.68605228  0.49076840     0.10400
C718        C  0.17542162  0.67409755  0.54915001    -0.15500
C719        C  0.17053701  0.67656494  0.56550390     0.03400
C720        C  0.15571438  0.68494967  0.56889892    -0.10800
C721        C  0.14601649  0.69070219  0.55580940    -0.00900
C722        C  0.15098068  0.68839310  0.53949062    -0.06000
H723        H  0.18666869  0.66736218  0.54660530     0.06400
H724        H  0.13463664  0.69723249  0.55830293     0.09800
Br725      Br  0.19827983  0.69935112  0.52434944    -0.05700
Br726      Br  0.15028410  0.64990375  0.48035939    -0.02700
Br727      Br  0.18392152  0.66727279  0.58264123     0.00200
Br728      Br  0.13739377  0.69736074  0.52233740    -0.04200
C729        C  0.21963746  0.71156472  0.36292643    -0.11600
C730        C  0.21067039  0.71589582  0.34864463     0.03900
C731        C  0.21580657  0.72922729  0.33896944    -0.12100
C732        C  0.22972878  0.73847090  0.34329378     0.18700
C733        C  0.23873810  0.73415589  0.35745222    -0.09200
C734        C  0.23364056  0.72083271  0.36716212    -0.02100
H735        H  0.20866022  0.73268346  0.32823457     0.05300
C736        C  0.23407727  0.75312649  0.33338978     0.20700
H737        H  0.24066455  0.71768302  0.37806781     0.10400
C738        C  0.23008380  0.76881556  0.33944121    -0.15500
C739        C  0.23356932  0.78294818  0.33020659     0.03400
C740        C  0.24112476  0.78147082  0.31465871    -0.10800
C741        C  0.24514033  0.76580174  0.30859148    -0.00900
C742        C  0.24169174  0.75165344  0.31786058    -0.06000
H743        H  0.22412676  0.77003937  0.35133350     0.06400
H744        H  0.25100542  0.76459686  0.29665296     0.09800
Br745      Br  0.25812687  0.74606807  0.36384435    -0.05700
Br746      Br  0.19047385  0.70522843  0.34251886    -0.02700
Br747      Br  0.22751534  0.80400166  0.33909526     0.00200
Br748      Br  0.24786325  0.73061347  0.30906456    -0.04200
C749        C  0.15891039  0.89084253  0.07680926    -0.11600
C750        C  0.17343912  0.89956489  0.07289312     0.03900
C751        C  0.17857283  0.90089325  0.05643487    -0.12100
C752        C  0.16948786  0.89358252  0.04366397     0.18700
C753        C  0.15526340  0.88441631  0.04764434    -0.09200
C754        C  0.14995645  0.88334540  0.06405227    -0.02100
H755        H  0.18954944  0.90792619  0.05354515     0.05300
C756        C  0.17499773  0.89574334  0.02631372     0.20700
H757        H  0.13889904  0.87642018  0.06689847     0.10400
C758        C  0.18989989  0.88864992  0.02113521    -0.15500
C759        C  0.19539128  0.89031690  0.00481137     0.03400
C760        C  0.18579469  0.89910342  0.99322365    -0.10800
C761        C  0.17117263  0.90668644  0.99863591    -0.00900
C762        C  0.16581657  0.90517613  0.01498556    -0.06000
H763        H  0.19733589  0.88182323  0.02987252     0.06400
H764        H  0.16375455  0.91374158  0.99007483     0.09800
Br765      Br  0.14305791  0.87262307  0.03118376    -0.05700
Br766      Br  0.18607474  0.91089250  0.08934586    -0.02700
Br767      Br  0.21668233  0.88146661  0.99954733     0.00200
Br768      Br  0.14621670  0.91677439  0.02141258    -0.04200
C769        C  0.17376575  0.85427051  0.20747181    -0.11600
C770        C  0.16664384  0.84514246  0.22054112     0.03900
C771        C  0.17673430  0.83828411  0.23275740    -0.12100
C772        C  0.19386663  0.84025904  0.23220791     0.18700
C773        C  0.20102200  0.84901653  0.21908224    -0.09200
C774        C  0.19100981  0.85588099  0.20685781    -0.02100
H775        H  0.17119664  0.83139402  0.24277138     0.05300
C776        C  0.20409433  0.83359871  0.24570113     0.20700
H777        H  0.19675236  0.86280548  0.19699383     0.10400
C778        C  0.21089230  0.81777967  0.24430295    -0.15500
C779        C  0.22126901  0.81152403  0.25660477     0.03400
C780        C  0.22511498  0.82129416  0.27048638    -0.10800
C781        C  0.21802966  0.83701775  0.27193455    -0.00900
C782        C  0.20748162  0.84312234  0.25976234    -0.06000
H783        H  0.20829212  0.81038414  0.23349926     0.06400
H784        H  0.22071826  0.84457834  0.28260092     0.09800
Br785      Br  0.22440193  0.85219690  0.21758782    -0.05700
Br786      Br  0.14347918  0.84059569  0.22204568    -0.02700
Br787      Br  0.23050329  0.78998373  0.25336051     0.00200
Br788      Br  0.19800818  0.86457100  0.26272460    -0.04200
C789        C  0.34193560  0.88511820  0.32610593    -0.11600
C790        C  0.32539571  0.88794733  0.33091522     0.03900
C791        C  0.31302618  0.87693827  0.32611248    -0.12100
C792        C  0.31674754  0.86254734  0.31729905     0.18700
C793        C  0.33325057  0.85943554  0.31288699    -0.09200
C794        C  0.34556685  0.87074720  0.31708541    -0.02100
H795        H  0.30039488  0.87943126  0.32964145     0.05300
C796        C  0.30319447  0.85108957  0.31280253     0.20700
H797        H  0.35809734  0.86815455  0.31334582     0.10400
C798        C  0.30020114  0.84759581  0.29612868    -0.15500
C799        C  0.28725345  0.83722668  0.29138416     0.03400
C800        C  0.27656281  0.83056525  0.30344007    -0.10800
C801        C  0.27966339  0.83401878  0.32012980    -0.00900
C802        C  0.29287918  0.84400097  0.32487167    -0.06000
H803        H  0.30805399  0.85291874  0.28672539     0.06400
H804        H  0.27168437  0.82899330  0.32958945     0.09800
Br805      Br  0.33984470  0.83950303  0.30197725    -0.05700
Br806      Br  0.31872376  0.90538804  0.34543609    -0.02700
Br807      Br  0.28560860  0.83183895  0.26839596     0.00200
Br808      Br  0.29658265  0.84701630  0.34804818    -0.04200
C809        C  0.97345707  0.66368899  0.68468629    -0.11600
C810        C  0.98694316  0.65321825  0.68801547     0.03900
C811        C  0.00284461  0.65811849  0.68362045    -0.12100
C812        C  0.00562602  0.67350211  0.67630087     0.18700
C813        C  0.99233770  0.68435118  0.67384709    -0.09200
C814        C  0.97639237  0.67937733  0.67797545    -0.02100
H815        H  0.01309831  0.64985257  0.68582330     0.05300
C816        C  0.02235762  0.67769808  0.67066091     0.20700
H817        H  0.96622206  0.68766186  0.67551139     0.10400
C818        C  0.02544070  0.67876809  0.65371083    -0.15500
C819        C  0.04113648  0.68265140  0.64777870     0.03400
C820        C  0.05421001  0.68526378  0.65900746    -0.10800
C821        C  0.05100196  0.68404949  0.67601559    -0.00900
C822        C  0.03525124  0.68036398  0.68187318    -0.06000
H823        H  0.01548009  0.67677263  0.64504676     0.06400
H824        H  0.06078752  0.68597142  0.68487188     0.09800
Br825      Br  0.99542673  0.70610967  0.66509464    -0.05700
Br826      Br  0.98465381  0.63257441  0.69935489    -0.02700
Br827      Br  0.04319240  0.68542114  0.62437136     0.00200
Br828      Br  0.03178148  0.67973066  0.70526576    -0.04200
C829        C  0.78081863  0.75411139  0.72030490    -0.11600
C830        C  0.78101121  0.74614996  0.70486008     0.03900
C831        C  0.79388476  0.73543246  0.70093277    -0.12100
C832        C  0.80666797  0.73259797  0.71215318     0.18700
C833        C  0.80678498  0.74091278  0.72735757    -0.09200
C834        C  0.79379065  0.75146871  0.73141639    -0.02100
H835        H  0.79377592  0.72902971  0.68921700     0.05300
C836        C  0.81936330  0.72035231  0.70802406     0.20700
H837        H  0.79382827  0.75769486  0.74322665     0.10400
C838        C  0.83238088  0.72480643  0.69760053    -0.15500
C839        C  0.84443098  0.71329489  0.69322364     0.03400
C840        C  0.84352851  0.69707949  0.69945030    -0.10800
C841        C  0.83022019  0.69257654  0.70953894    -0.00900
C842        C  0.81817418  0.70407644  0.71384131    -0.06000
H843        H  0.83305664  0.73722537  0.69273795     0.06400
H844        H  0.82929541  0.68012027  0.71426159     0.09800
Br845      Br  0.82450657  0.73828585  0.74276906    -0.05700
Br846      Br  0.76360081  0.74877662  0.68906447    -0.02700
Br847      Br  0.86098247  0.72004804  0.67771339     0.00200
Br848      Br  0.80015441  0.69700723  0.72744103    -0.04200
C849        C  0.74637644  0.80349788  0.70946007    -0.11600
C850        C  0.73215623  0.80366008  0.69951225     0.03900
C851        C  0.72908034  0.81712737  0.68924961    -0.12100
C852        C  0.74006528  0.83043029  0.68868601     0.18700
C853        C  0.75425815  0.83030324  0.69861360    -0.09200
C854        C  0.75736919  0.81682598  0.70887945    -0.02100
H855        H  0.71821018  0.81714005  0.68150049     0.05300
C856        C  0.73653771  0.84421361  0.67746345     0.20700
H857        H  0.76838655  0.81671612  0.71641695     0.10400
C858        C  0.72624301  0.85697768  0.68281864    -0.15500
C859        C  0.72198262  0.86985566  0.67219564     0.03400
C860        C  0.72798741  0.86992332  0.65585979    -0.10800
C861        C  0.73830664  0.85709285  0.65056459    -0.00900
C862        C  0.74270537  0.84435074  0.66127493    -0.06000
H863        H  0.72133205  0.85678096  0.69523999     0.06400
H864        H  0.74304575  0.85704193  0.63807837     0.09800
Br865      Br  0.76967043  0.84821148  0.69839844    -0.05700
Br866      Br  0.71713481  0.78539106  0.69878236    -0.02700
Br867      Br  0.70698442  0.88622721  0.68035141     0.00200
Br868      Br  0.75704913  0.82732332  0.65332169    -0.04200
C869        C  0.67804395  0.74190822  0.82034399    -0.11600
C870        C  0.69459217  0.73659093  0.82000848     0.03900
C871        C  0.70497731  0.74174561  0.80724560    -0.12100
C872        C  0.69914713  0.75225002  0.79484800     0.18700
C873        C  0.68267334  0.75758911  0.79517207    -0.09200
C874        C  0.67222380  0.75230519  0.80780068    -0.02100
H875        H  0.71762202  0.73746374  0.80690923     0.05300
C876        C  0.71033396  0.75714936  0.78142896     0.20700
H877        H  0.65954807  0.75649985  0.80794128     0.10400
C878        C  0.71204948  0.74677750  0.76774060    -0.15500
C879        C  0.72263135  0.75098845  0.75481078     0.03400
C880        C  0.73180765  0.76571782  0.75561078    -0.10800
C881        C  0.72991401  0.77617769  0.76925094    -0.00900
C882        C  0.71927622  0.77197079  0.78214403    -0.06000
H883        H  0.70500909  0.73545226  0.76706407     0.06400
H884        H  0.73681577  0.78758719  0.76990415     0.09800
Br885      Br  0.67400236  0.77209407  0.77864282    -0.05700
Br886      Br  0.70337004  0.72146843  0.83593249    -0.02700
Br887      Br  0.72340150  0.73671971  0.73596160     0.00200
Br888      Br  0.71730460  0.78672102  0.80050193    -0.04200
C889        C  0.55412082  0.70066925  0.85644300    -0.11600
C890        C  0.55091138  0.68685457  0.84639344     0.03900
C891        C  0.53461443  0.68200980  0.84345732    -0.12100
C892        C  0.52140129  0.69081026  0.85029891     0.18700
C893        C  0.52459617  0.70482720  0.85996730    -0.09200
C894        C  0.54085616  0.70956875  0.86307705    -0.02100
H895        H  0.53223180  0.67109529  0.83615123     0.05300
C896        C  0.50444893  0.68454040  0.84817862     0.20700
H897        H  0.54316058  0.72028383  0.87069495     0.10400
C898        C  0.49669903  0.67676958  0.86152382    -0.15500
C899        C  0.48084068  0.67022819  0.85994747     0.03400
C900        C  0.47249114  0.67135168  0.84473941    -0.10800
C901        C  0.48011434  0.67953019  0.83150761    -0.00900
C902        C  0.49602468  0.68601814  0.83310745    -0.06000
H903        H  0.50304597  0.67579318  0.87322648     0.06400
H904        H  0.47382398  0.68056288  0.81978722     0.09800
Br905      Br  0.50711367  0.71794441  0.86897408    -0.05700
Br906      Br  0.56820330  0.67335671  0.83754050    -0.02700
Br907      Br  0.47089080  0.66083125  0.87925529     0.00200
Br908      Br  0.50574018  0.69694518  0.81452743    -0.04200
C909        C  0.87865346  0.57304666  0.65746247    -0.11600
C910        C  0.86545018  0.56990628  0.64657381     0.03900
C911        C  0.86209326  0.55372864  0.64172051    -0.12100
C912        C  0.87185018  0.54064956  0.64734940     0.18700
C913        C  0.88516831  0.54378287  0.65793992    -0.09200
C914        C  0.88842355  0.55986458  0.66295781    -0.02100
H915        H  0.85207716  0.55135723  0.63321905     0.05300
C916        C  0.86851121  0.52388642  0.64142121     0.20700
H917        H  0.89859564  0.56204047  0.67131467     0.10400
C918        C  0.87952032  0.51669975  0.63025460    -0.15500
C919        C  0.87713179  0.50062303  0.62469850     0.03400
C920        C  0.86323651  0.49162962  0.63007227    -0.10800
C921        C  0.85228863  0.49884725  0.64137739    -0.00900
C922        C  0.85484762  0.51487278  0.64708241    -0.06000
H923        H  0.89022685  0.52354199  0.62613047     0.06400
H924        H  0.84165407  0.49203908  0.64572187     0.09800
Br925      Br  0.89914006  0.52647587  0.66599569    -0.05700
Br926      Br  0.85255124  0.58710183  0.63669593    -0.02700
Br927      Br  0.89412023  0.49130705  0.61110283     0.00200
Br928      Br  0.83976516  0.52375179  0.66299211    -0.04200
C929        C  0.81607417  0.30154434  0.71563277    -0.11600
C930        C  0.82750255  0.29837596  0.70296980     0.03900
C931        C  0.83054403  0.31039802  0.69100943    -0.12100
C932        C  0.82241054  0.32561463  0.69167431     0.18700
C933        C  0.81109431  0.32881270  0.70441520    -0.09200
C934        C  0.80791458  0.31673508  0.71625247    -0.02100
H935        H  0.83927597  0.30791580  0.68121149     0.05300
C936        C  0.82577867  0.33808807  0.67898740     0.20700
H937        H  0.79914245  0.31921325  0.72601674     0.10400
C938        C  0.81614162  0.33833000  0.66468494    -0.15500
C939        C  0.81827857  0.35068379  0.65287065     0.03400
C940        C  0.83038143  0.36293327  0.65529125    -0.10800
C941        C  0.84004178  0.36258314  0.66964477    -0.00900
C942        C  0.83782969  0.35025755  0.68144963    -0.06000
H943        H  0.80663034  0.32912378  0.66294075     0.06400
H944        H  0.84938031  0.37190324  0.67166881     0.09800
Br945      Br  0.79989143  0.34955888  0.70612441    -0.05700
Br946      Br  0.83898464  0.27775442  0.70149600    -0.02700
Br947      Br  0.80329394  0.35101868  0.63457745     0.00200
Br948      Br  0.85124291  0.35062398  0.70090800    -0.04200
C949        C  0.78089002  0.25573311  0.73602794    -0.11600
C950        C  0.76466566  0.26166356  0.73402809     0.03900
C951        C  0.75196975  0.25071427  0.73003049    -0.12100
C952        C  0.75512157  0.23381458  0.72820400     0.18700
C953        C  0.77121889  0.22783123  0.73076618    -0.09200
C954        C  0.78391758  0.23876982  0.73465088    -0.02100
H955        H  0.73961805  0.25542200  0.72814396     0.05300
C956        C  0.74171801  0.22270908  0.72284066     0.20700
H957        H  0.79631798  0.23405484  0.73617457     0.10400
C958        C  0.74308127  0.21482838  0.70751926    -0.15500
C959        C  0.73101866  0.20379254  0.70217606     0.03400
C960        C  0.71714815  0.20067418  0.71215770    -0.10800
C961        C  0.71544368  0.20902240  0.72719618    -0.00900
C962        C  0.72766334  0.21989086  0.73265488    -0.06000
H963        H  0.75365380  0.21723255  0.69971299     0.06400
H964        H  0.70478789  0.20673422  0.73492074     0.09800
Br965      Br  0.77649639  0.20482851  0.72915604    -0.05700
Br966      Br  0.75909097  0.28444923  0.73710163    -0.02700
Br967      Br  0.73373730  0.19402191  0.68080111     0.00200
Br968      Br  0.72501024  0.22989398  0.75391280    -0.04200
C969        C  0.68492375  0.07998292  0.65959275    -0.11600
C970        C  0.67375366  0.06662442  0.65991356     0.03900
C971        C  0.67879008  0.05113161  0.65437865    -0.12100
C972        C  0.69491894  0.04846386  0.64879939     0.18700
C973        C  0.70613333  0.06170871  0.64858929    -0.09200
C974        C  0.70109223  0.07727987  0.65399481    -0.02100
H975        H  0.67007616  0.04101491  0.65454801     0.05300
C976        C  0.69949034  0.03185905  0.64283923     0.20700
H977        H  0.70983777  0.08735984  0.65369366     0.10400
C978        C  0.70376147  0.02975675  0.62623041    -0.15500
C979        C  0.70691657  0.01408786  0.61981785     0.03400
C980        C  0.70536341  0.00007642  0.63002432    -0.10800
C981        C  0.70159308  0.00226714  0.64678565    -0.00900
C982        C  0.69869335  0.01796979  0.65323343    -0.06000
H983        H  0.70452595  0.04037632  0.61816940     0.06400
H984        H  0.70052040  0.99169427  0.65486710     0.09800
Br985      Br  0.72855048  0.05909203  0.64149299    -0.05700
Br986      Br  0.65190036  0.06813816  0.66888785    -0.02700
Br987      Br  0.71428188  0.01287438  0.59736716     0.00200
Br988      Br  0.69387333  0.01979880  0.67633704    -0.04200
C989        C  0.83214708  0.27137595  0.76627082    -0.11600
C990        C  0.84405687  0.25885117  0.76492293     0.03900
C991        C  0.85542108  0.25647234  0.77762779    -0.12100
C992        C  0.85511692  0.26653808  0.79165265     0.18700
C993        C  0.84341852  0.27927722  0.79285947    -0.09200
C994        C  0.83198726  0.28160127  0.78018662    -0.02100
H995        H  0.86453757  0.24677200  0.77657531     0.05300
C996        C  0.86714834  0.26352906  0.80486968     0.20700
H997        H  0.82299802  0.29142842  0.78114112     0.10400
C998        C  0.88312195  0.26987060  0.80332571    -0.15500
C999        C  0.89503656  0.26668483  0.81535570     0.03400
C1000       C  0.89095893  0.25693970  0.82919559    -0.10800
C1001       C  0.87480277  0.25092312  0.83083242    -0.00900
C1002       C  0.86297050  0.25403490  0.81873794    -0.06000
H1003       H  0.88631955  0.27730068  0.79269568     0.06400
H1004       H  0.87148845  0.24330424  0.84128571     0.09800
Br1005     Br  0.84287585  0.29388539  0.81142616    -0.05700
Br1006     Br  0.84552513  0.24511942  0.74573729    -0.02700
Br1007     Br  0.91631311  0.27663571  0.81252609     0.00200
Br1008     Br  0.84146630  0.24453256  0.82127187    -0.04200
C1009       C  0.65906818  0.88963997  0.45078051    -0.11600
C1010       C  0.65158439  0.90245232  0.45994077     0.03900
C1011       C  0.65730331  0.90616280  0.47576643    -0.12100
C1012       C  0.67041483  0.89737448  0.48272490     0.18700
C1013       C  0.67817381  0.88491895  0.47351894    -0.09200
C1014       C  0.67256891  0.88122770  0.45764407    -0.02100
H1015       H  0.65138773  0.91587024  0.48277567     0.05300
C1016       C  0.67525974  0.90090779  0.49989211     0.20700
H1017       H  0.67849429  0.87138560  0.45084822     0.10400
C1018       C  0.66968922  0.89046272  0.51246221    -0.15500
C1019       C  0.67331165  0.89378293  0.52898202     0.03400
C1020       C  0.68288468  0.90771780  0.53312111    -0.10800
C1021       C  0.68831092  0.91824351  0.52046023    -0.00900
C1022       C  0.68456513  0.91493859  0.50395681    -0.06000
H1023       H  0.66217199  0.87986059  0.50940731     0.06400
H1024       H  0.69564888  0.92899990  0.52338742     0.09800
Br1025     Br  0.69632057  0.87254528  0.48223926    -0.05700
Br1026     Br  0.63409294  0.91594013  0.45145614    -0.02700
Br1027     Br  0.66353899  0.87965997  0.54525584     0.00200
Br1028     Br  0.69253716  0.92975033  0.48733417    -0.04200
C1029       C  0.55422017  0.86951621  0.36856970    -0.11600
C1030       C  0.54172185  0.86920711  0.38072536     0.03900
C1031       C  0.52576800  0.87437794  0.37678477    -0.12100
C1032       C  0.52172238  0.87929244  0.36073101     0.18700
C1033       C  0.53384698  0.87853435  0.34833473    -0.09200
C1034       C  0.54993881  0.87381309  0.35233045    -0.02100
H1035       H  0.51645494  0.87466769  0.38635765     0.05300
C1036       C  0.50514113  0.88618102  0.35749602     0.20700
H1037       H  0.55920114  0.87386890  0.34271901     0.10400
C1038       C  0.50378694  0.90269606  0.35260420    -0.15500
C1039       C  0.48838580  0.91005685  0.35028976     0.03400
C1040       C  0.47386017  0.90092346  0.35335380    -0.10800
C1041       C  0.47527806  0.88427488  0.35795459    -0.00900
C1042       C  0.49071078  0.87687776  0.35998218    -0.06000
H1043       H  0.51483076  0.90992285  0.35055951     0.06400
H1044       H  0.46432819  0.87698113  0.36020085     0.09800
Br1045     Br  0.52893331  0.88350669  0.32573445    -0.05700
Br1046     Br  0.54511331  0.86084569  0.40259993    -0.02700
Br1047     Br  0.48833507  0.93213344  0.34176014     0.00200
Br1048     Br  0.49141209  0.85394320  0.36571083    -0.04200
C1049       C  0.73044893  0.82863934  0.25525748    -0.11600
C1050       C  0.71806332  0.84073581  0.25621272     0.03900
C1051       C  0.70847854  0.84204369  0.27047416    -0.12100
C1052       C  0.71114697  0.83147026  0.28388229     0.18700
C1053       C  0.72353792  0.81938229  0.28293215    -0.09200
C1054       C  0.73304548  0.81798738  0.26861875    -0.02100
H1055       H  0.69891946  0.85134313  0.27113636     0.05300
C1056       C  0.70085998  0.83339204  0.29873532     0.20700
H1057       H  0.74257105  0.80865354  0.26793600     0.10400
C1058       C  0.68598908  0.82474241  0.29991441    -0.15500
C1059       C  0.67536265  0.82717971  0.31329565     0.03400
C1060       C  0.67942288  0.83885418  0.32562366    -0.10800
C1061       C  0.69469365  0.84703006  0.32459265    -0.00900
C1062       C  0.70539059  0.84430620  0.31135591    -0.06000
H1063       H  0.68264829  0.81603973  0.29035762     0.06400
H1064       H  0.69822317  0.85590332  0.33389912     0.09800
Br1065     Br  0.72797485  0.80472677  0.30092434    -0.05700
Br1066     Br  0.71356630  0.85538298  0.23819848    -0.02700
Br1067     Br  0.65624632  0.81327766  0.31432887     0.00200
Br1068     Br  0.72601452  0.85585365  0.31083245    -0.04200
C1069       C  0.74463555  0.79748438  0.20450682    -0.11600
C1070       C  0.72975494  0.79617479  0.19568362     0.03900
C1071       C  0.72662469  0.78216446  0.18617629    -0.12100
C1072       C  0.73806069  0.76921287  0.18544445     0.18700
C1073       C  0.75303574  0.77059719  0.19413572    -0.09200
C1074       C  0.75625006  0.78471779  0.20351378    -0.02100
H1075       H  0.71520193  0.78135009  0.17931555     0.05300
C1076       C  0.73427926  0.75464978  0.17513604     0.20700
H1077       H  0.76764856  0.78555275  0.21041190     0.10400
C1078       C  0.74390668  0.75151560  0.16111980    -0.15500
C1079       C  0.74008749  0.73848475  0.15052226     0.03400
C1080       C  0.72623584  0.72850325  0.15372505    -0.10800
C1081       C  0.71693551  0.73127484  0.16804372    -0.00900
C1082       C  0.72083392  0.74424080  0.17871538    -0.06000
H1083       H  0.75437821  0.75932690  0.15835453     0.06400
H1084       H  0.70634908  0.72358963  0.17072499     0.09800
Br1085     Br  0.76904294  0.75318985  0.19426034    -0.05700
Br1086     Br  0.71352070  0.81337714  0.19597312    -0.02700
Br1087     Br  0.75470567  0.73431277  0.13239586     0.00200
Br1088     Br  0.70758828  0.74709929  0.19811056    -0.04200
C1089       C  0.67652105  0.70038058  0.03167913    -0.11600
C1090       C  0.68712464  0.70830930  0.02040902     0.03900
C1091       C  0.68135842  0.71253639  0.00470487    -0.12100
C1092       C  0.66491968  0.70959129  0.00015721     0.18700
C1093       C  0.65415683  0.70231113  0.01173554    -0.09200
C1094       C  0.66007997  0.69752967  0.02719337    -0.02100
H1095       H  0.68984909  0.71786532  0.99588096     0.05300
C1096       C  0.65951127  0.71310708  0.98301979     0.20700
H1097       H  0.65173271  0.69171955  0.03585413     0.10400
C1098       C  0.65309176  0.70016706  0.97349334    -0.15500
C1099       C  0.64753317  0.70286751  0.95742684     0.03400
C1100       C  0.64881575  0.71868075  0.95038598    -0.10800
C1101       C  0.65579171  0.73150968  0.95960801    -0.00900
C1102       C  0.66094933  0.72891382  0.97587323    -0.06000
H1103       H  0.65236955  0.68785714  0.97861855     0.06400
H1104       H  0.65683551  0.74370729  0.95427030     0.09800
Br1105     Br  0.63112143  0.69911892  0.00733412    -0.05700
Br1106     Br  0.70983432  0.71269291  0.02531915    -0.02700
Br1107     Br  0.63904951  0.68432841  0.94544119     0.00200
Br1108     Br  0.66902089  0.74757327  0.98794057    -0.04200
C1109       C  0.97435311  0.92995934  0.18252134    -0.11600
C1110       C  0.97836851  0.91688526  0.17176026     0.03900
C1111       C  0.99489458  0.91261750  0.16921849    -0.12100
C1112       C  0.00755139  0.92124240  0.17717548     0.18700
C1113       C  0.00358077  0.93419884  0.18796560    -0.09200
C1114       C  0.98709293  0.93850644  0.19051398    -0.02100
H1115       H  0.99792291  0.90281719  0.16067310     0.05300
C1116       C  0.02487435  0.91728600  0.17331700     0.20700
H1117       H  0.98420416  0.94858111  0.19878407     0.10400
C1118       C  0.03332645  0.92707983  0.16188033    -0.15500
C1119       C  0.04989642  0.92407647  0.15818749     0.03400
C1120       C  0.05827702  0.91096750  0.16600037    -0.10800
C1121       C  0.04973525  0.90122351  0.17752578    -0.00900
C1122       C  0.03314295  0.90424076  0.18114497    -0.06000
H1123       H  0.02703694  0.93727733  0.15598097     0.06400
H1124       H  0.05593431  0.89109732  0.18362724     0.09800
Br1125     Br  0.02034027  0.94631456  0.19940587    -0.05700
Br1126     Br  0.96205869  0.90549076  0.15898324    -0.02700
Br1127     Br  0.06057899  0.93913114  0.14339149     0.00200
Br1128     Br  0.02229170  0.89045752  0.19700067    -0.04200
C1129       C  0.77674516  0.84788740  0.21994808    -0.11600
C1130       C  0.77572815  0.86008756  0.20764849     0.03900
C1131       C  0.78887175  0.87103228  0.20531385    -0.12100
C1132       C  0.80301983  0.87002205  0.21519752     0.18700
C1133       C  0.80384579  0.85807894  0.22773942    -0.09200
C1134       C  0.79076846  0.84709413  0.23000664    -0.02100
H1135       H  0.78805876  0.88037020  0.19580125     0.05300
C1136       C  0.81679349  0.88154776  0.21230330     0.20700
H1137       H  0.79151286  0.83790860  0.23967226     0.10400
C1138       C  0.81625309  0.89729629  0.21932752    -0.15500
C1139       C  0.82914814  0.90849277  0.21687681     0.03400
C1140       C  0.84268832  0.90410687  0.20682409    -0.10800
C1141       C  0.84334426  0.88813623  0.20015717    -0.00900
C1142       C  0.83057506  0.87687290  0.20288746    -0.06000
H1143       H  0.80588653  0.90076794  0.22700234     0.06400
H1144       H  0.85370742  0.88446334  0.19258029     0.09800
Br1145     Br  0.82247941  0.85656522  0.24218640    -0.05700
Br1146     Br  0.75637579  0.86263637  0.19431889    -0.02700
Br1147     Br  0.82820884  0.92888014  0.22882938     0.00200
Br1148     Br  0.83238444  0.85523560  0.19354098    -0.04200
C1149       C  0.67804150  0.60424540  0.12802286    -0.11600
C1150       C  0.66362512  0.59579267  0.12305448     0.03900
C1151       C  0.66005788  0.58027192  0.12969747    -0.12100
C1152       C  0.67056667  0.57297502  0.14128157     0.18700
C1153       C  0.68490170  0.58130385  0.14623296    -0.09200
C1154       C  0.68850472  0.59680535  0.13966042    -0.02100
H1155       H  0.64893787  0.57390934  0.12594004     0.05300
C1156       C  0.66646960  0.55660365  0.14801866     0.20700
H1157       H  0.69959899  0.60305200  0.14365207     0.10400
C1158       C  0.67519306  0.54280563  0.14240356    -0.15500
C1159       C  0.67177734  0.52709929  0.14860862     0.03400
C1160       C  0.65938165  0.52507154  0.16065458    -0.10800
C1161       C  0.65052945  0.53890688  0.16609672    -0.00900
C1162       C  0.65405608  0.55461027  0.15995925    -0.06000
H1163       H  0.68463969  0.54427751  0.13307358     0.06400
H1164       H  0.64099942  0.53752915  0.17535637     0.09800
Br1165     Br  0.69965592  0.57211304  0.16226239    -0.05700
Br1166     Br  0.64761213  0.60506453  0.10832648    -0.02700
Br1167     Br  0.68364981  0.50889318  0.13927763     0.00200
Br1168     Br  0.64202356  0.57302987  0.16860726    -0.04200
C1169       C  0.76763296  0.35131915  0.21422616    -0.11600
C1170       C  0.75149536  0.34558300  0.21694704     0.03900
C1171       C  0.73810261  0.35608376  0.21437036    -0.12100
C1172       C  0.74049528  0.37234943  0.20904000     0.18700
C1173       C  0.75667682  0.37815222  0.20642185    -0.09200
C1174       C  0.77009739  0.36763057  0.20905480    -0.02100
H1175       H  0.72574631  0.35161269  0.21674943     0.05300
C1176       C  0.72595393  0.38315901  0.20695392     0.20700
H1177       H  0.78249626  0.37215449  0.20700939     0.10400
C1178       C  0.72391452  0.39667347  0.21752831    -0.15500
C1179       C  0.71017720  0.40698155  0.21613997     0.03400
C1180       C  0.69813452  0.40377792  0.20404407    -0.10800
C1181       C  0.69990727  0.38997337  0.19379948    -0.00900
C1182       C  0.71372249  0.37973207  0.19510885    -0.06000
H1183       H  0.73300725  0.39913383  0.22698506     0.06400
H1184       H  0.69077955  0.38744835  0.18439624     0.09800
Br1185     Br  0.76105239  0.40014978  0.19889929    -0.05700
Br1186     Br  0.74716800  0.32382746  0.22506114    -0.02700
Br1187     Br  0.70800312  0.42467998  0.23167332     0.00200
Br1188     Br  0.71571248  0.36169844  0.17994388    -0.04200
C1189       C  0.88471003  0.02823277  0.16829119    -0.11600
C1190       C  0.87127837  0.03797911  0.17365017     0.03900
C1191       C  0.86935412  0.05402697  0.16758967    -0.12100
C1192       C  0.88062095  0.06065463  0.15630403     0.18700
C1193       C  0.89408694  0.05108221  0.15108295    -0.09200
C1194       C  0.89597647  0.03502833  0.15699131    -0.02100
H1195       H  0.85913749  0.06148254  0.17187766     0.05300
C1196       C  0.87853265  0.07779566  0.15058482     0.20700
H1197       H  0.90639209  0.02784965  0.15273512     0.10400
C1198       C  0.88191348  0.09078468  0.16145922    -0.15500
C1199       C  0.88080567  0.10718298  0.15622218     0.03400
C1200       C  0.87641438  0.11071357  0.13977225    -0.10800
C1201       C  0.87280696  0.09767465  0.12900428    -0.00900
C1202       C  0.87359524  0.08133035  0.13435039    -0.06000
H1203       H  0.88568753  0.08813002  0.17398947     0.06400
H1204       H  0.86907506  0.10022567  0.11644164     0.09800
Br1205     Br  0.91060222  0.05966081  0.13645103    -0.05700
Br1206     Br  0.85592664  0.03088121  0.19019083    -0.02700
Br1207     Br  0.88639591  0.12410728  0.17175688     0.00200
Br1208     Br  0.86732958  0.06426613  0.11924710    -0.04200
C1209       C  0.82583049  0.23588900  0.14725483    -0.11600
C1210       C  0.81391001  0.24730127  0.14173484     0.03900
C1211       C  0.80960008  0.26069340  0.15171798    -0.12100
C1212       C  0.81688883  0.26284964  0.16722693     0.18700
C1213       C  0.82830745  0.25115312  0.17298874    -0.09200
C1214       C  0.83277593  0.23791168  0.16297702    -0.02100
H1215       H  0.80046427  0.26942402  0.14741710     0.05300
C1216       C  0.81212859  0.27711418  0.17743916     0.20700
H1217       H  0.84183180  0.22922050  0.16749961     0.10400
C1218       C  0.79643166  0.27746147  0.18463609    -0.15500
C1219       C  0.79178462  0.29040291  0.19502927     0.03400
C1220       C  0.80297297  0.30331184  0.19829867    -0.10800
C1221       C  0.81858571  0.30304785  0.19082863    -0.00900
C1222       C  0.82316457  0.29016353  0.18036812    -0.06000
H1223       H  0.78789960  0.26742831  0.18243528     0.06400
H1224       H  0.82722702  0.31297169  0.19309283     0.09800
Br1225     Br  0.83769200  0.25240582  0.19466104    -0.05700
Br1226     Br  0.80220204  0.24464042  0.12136069    -0.02700
Br1227     Br  0.77048285  0.28917359  0.20519537     0.00200
Br1228     Br  0.84446016  0.29105385  0.17009791    -0.04200
C1229       C  0.89031680  0.19845003  0.03668338    -0.11600
C1230       C  0.90723597  0.19834713  0.03267929     0.03900
C1231       C  0.91226297  0.20220820  0.01664423    -0.12100
C1232       C  0.90069327  0.20645990  0.00454285     0.18700
C1233       C  0.88384121  0.20693371  0.00862117    -0.09200
C1234       C  0.87880338  0.20302056  0.02460958    -0.02100
H1235       H  0.92526538  0.20197118  0.01359676     0.05300
C1236       C  0.90636938  0.20939916  0.98753059     0.20700
H1237       H  0.86577200  0.20319032  0.02752432     0.10400
C1238       C  0.91214120  0.19598941  0.97831128    -0.15500
C1239       C  0.91723432  0.19805256  0.96199486     0.03400
C1240       C  0.91659170  0.21380862  0.95468915    -0.10800
C1241       C  0.91085091  0.22723573  0.96395077    -0.00900
C1242       C  0.90593785  0.22517982  0.98033565    -0.06000
H1243       H  0.91241526  0.18380405  0.98377123     0.06400
H1244       H  0.91048152  0.23942537  0.95851058     0.09800
Br1245     Br  0.86719796  0.21211990  0.99263257    -0.05700
Br1246     Br  0.92406037  0.19423287  0.04877348    -0.02700
Br1247     Br  0.92377407  0.17872382  0.95002393     0.00200
Br1248     Br  0.89927926  0.24430777  0.99253655    -0.04200
C1249       C  0.88951036  0.38675794  0.44771321    -0.11600
C1250       C  0.87593301  0.39709121  0.45122397     0.03900
C1251       C  0.87063046  0.39903762  0.46751493    -0.12100
C1252       C  0.87867532  0.39091303  0.48044526     0.18700
C1253       C  0.89193146  0.38030714  0.47694365    -0.09200
C1254       C  0.89732784  0.37841855  0.46070271    -0.02100
H1255       H  0.86049713  0.40732113  0.47018005     0.05300
C1256       C  0.87367652  0.39443042  0.49755883     0.20700
H1257       H  0.90758725  0.37025269  0.45819637     0.10400
C1258       C  0.85855517  0.38849972  0.50346318    -0.15500
C1259       C  0.85338844  0.39200022  0.51955253     0.03400
C1260       C  0.86352290  0.40154381  0.52997445    -0.10800
C1261       C  0.87851907  0.40766368  0.52389054    -0.00900
C1262       C  0.88359256  0.40425785  0.50782044    -0.06000
H1263       H  0.85068445  0.38128122  0.49545972     0.06400
H1264       H  0.88635233  0.41515599  0.53167306     0.09800
Br1265     Br  0.90289996  0.36805118  0.49393707    -0.05700
Br1266     Br  0.86500863  0.40998299  0.43466621    -0.02700
Br1267     Br  0.83186151  0.38462582  0.52604926     0.00200
Br1268     Br  0.90382663  0.41387833  0.50019701    -0.04200
C1269       C  0.86559448  0.35290627  0.31878220    -0.11600
C1270       C  0.85341093  0.36411674  0.31350242     0.03900
C1271       C  0.84344280  0.36016947  0.30001153    -0.12100
C1272       C  0.84545717  0.34519595  0.29162880     0.18700
C1273       C  0.85756526  0.33398885  0.29693386    -0.09200
C1274       C  0.86755220  0.33792171  0.31038470    -0.02100
H1275       H  0.83431429  0.36895704  0.29580222     0.05300
C1276       C  0.83527749  0.34180492  0.27696217     0.20700
H1277       H  0.87688656  0.32922729  0.31432614     0.10400
C1278       C  0.84252262  0.34271900  0.26129176    -0.15500
C1279       C  0.83316418  0.33995709  0.24709420     0.03400
C1280       C  0.81624397  0.33626518  0.24850424    -0.10800
C1281       C  0.80901686  0.33539407  0.26420494    -0.00900
C1282       C  0.81840905  0.33807574  0.27838953    -0.06000
H1283       H  0.85547518  0.34575704  0.26011942     0.06400
H1284       H  0.79604308  0.33246919  0.26542206     0.09800
Br1285     Br  0.86074295  0.31311977  0.28630601    -0.05700
Br1286     Br  0.85082281  0.38552182  0.32322054    -0.02700
Br1287     Br  0.84386233  0.34221736  0.22611067     0.00200
Br1288     Br  0.80784909  0.33608680  0.29945592    -0.04200
C1289       C  0.59065826  0.17497831  0.67096179    -0.11600
C1290       C  0.58313943  0.17390363  0.65534430     0.03900
C1291       C  0.56636160  0.17726677  0.65371799    -0.12100
C1292       C  0.55680980  0.18155068  0.66746041     0.18700
C1293       C  0.56431548  0.18271007  0.68307073    -0.09200
C1294       C  0.58120717  0.17971206  0.68464918    -0.02100
H1295       H  0.56066194  0.17634966  0.64167747     0.05300
C1296       C  0.53890629  0.18368347  0.66521720     0.20700
H1297       H  0.58682514  0.18032332  0.69674344     0.10400
C1298       C  0.52961058  0.17016072  0.65978416    -0.15500
C1299       C  0.51277462  0.17173450  0.65664350     0.03400
C1300       C  0.50496320  0.18701177  0.65919411    -0.10800
C1301       C  0.51420670  0.20049272  0.66480359    -0.00900
C1302       C  0.53113631  0.19902842  0.66751847    -0.06000
H1303       H  0.53553332  0.15834352  0.65787758     0.06400
H1304       H  0.50834684  0.21237452  0.66646864     0.09800
Br1305     Br  0.55186668  0.18692564  0.70275216    -0.05700
Br1306     Br  0.59517954  0.16841843  0.63571785    -0.02700
Br1307     Br  0.50099370  0.15252275  0.64946778     0.00200
Br1308     Br  0.54322179  0.21857990  0.67308217    -0.04200
C1309       C  0.38183608  0.23119510  0.69349704    -0.11600
C1310       C  0.36696286  0.22236785  0.69517487     0.03900
C1311       C  0.35611508  0.22627877  0.70795417    -0.12100
C1312       C  0.35984155  0.23891787  0.71908818     0.18700
C1313       C  0.37461721  0.24782334  0.71735747    -0.09200
C1314       C  0.38552538  0.24387041  0.70463768    -0.02100
H1315       H  0.34490975  0.21917454  0.70947729     0.05300
C1316       C  0.34891085  0.24155655  0.73330081     0.20700
H1317       H  0.39698590  0.25062901  0.70350128     0.10400
C1318       C  0.34930396  0.23011340  0.74622381    -0.15500
C1319       C  0.33944183  0.23226700  0.76014543     0.03400
C1320       C  0.32900273  0.24609125  0.76122722    -0.10800
C1321       C  0.32850945  0.25747933  0.74822108    -0.00900
C1322       C  0.33827825  0.25521426  0.73421272    -0.06000
H1323       H  0.35748634  0.21957965  0.74554687     0.06400
H1324       H  0.32040723  0.26806929  0.74893221     0.09800
Br1325     Br  0.38072757  0.26490954  0.73250807    -0.05700
Br1326     Br  0.36153140  0.20390941  0.68142481    -0.02700
Br1327     Br  0.34128177  0.21643891  0.77764111     0.00200
Br1328     Br  0.33647158  0.27077375  0.71650676    -0.04200
C1329       C  0.00974026  0.19863263  0.85879524    -0.11600
C1330       C  0.02449994  0.20377097  0.86633070     0.03900
C1331       C  0.03937910  0.19629029  0.86198222    -0.12100
C1332       C  0.03974860  0.18358507  0.85030949     0.18700
C1333       C  0.02498616  0.17832019  0.84288454    -0.09200
C1334       C  0.01013069  0.18603932  0.84697573    -0.02100
H1335       H  0.05071064  0.20035090  0.86775424     0.05300
C1336       C  0.05562960  0.17572870  0.84638202     0.20700
H1337       H  0.99878217  0.18182261  0.84135195     0.10400
C1338       C  0.06290106  0.16528458  0.85803867    -0.15500
C1339       C  0.07803131  0.15770712  0.85483180     0.03400
C1340       C  0.08596701  0.16036373  0.83956950    -0.10800
C1341       C  0.07886993  0.17124484  0.82813228    -0.00900
C1342       C  0.06385445  0.17898658  0.83147633    -0.06000
H1343       H  0.05685227  0.16318633  0.86976331     0.06400
H1344       H  0.08498831  0.17368179  0.81651353     0.09800
Br1345     Br  0.02445678  0.16005039  0.82788923    -0.05700
Br1346     Br  0.02505854  0.22125932  0.88222783    -0.02700
Br1347     Br  0.08785417  0.14521575  0.87236054     0.00200
Br1348     Br  0.05531368  0.19435886  0.81566642    -0.04200
C1349       C  0.28270943  0.22930999  0.79781227    -0.11600
C1350       C  0.26644041  0.23521966  0.79937581     0.03900
C1351       C  0.25354299  0.22416256  0.80215317    -0.12100
C1352       C  0.25647622  0.20715552  0.80304221     0.18700
C1353       C  0.27266440  0.20118620  0.80095606    -0.09200
C1354       C  0.28563544  0.21227579  0.79860379    -0.02100
H1355       H  0.24107686  0.22882237  0.80325573     0.05300
C1356       C  0.24228935  0.19590988  0.80506242     0.20700
H1357       H  0.29803025  0.20756559  0.79700335     0.10400
C1358       C  0.22989428  0.19586387  0.79300717    -0.15500
C1359       C  0.21620378  0.18550442  0.79444304     0.03400
C1360       C  0.21499819  0.17464438  0.80795779    -0.10800
C1361       C  0.22729679  0.17485257  0.82010860    -0.00900
C1362       C  0.24066003  0.18564543  0.81896646    -0.06000
H1363       H  0.23091306  0.20391318  0.78239528     0.06400
H1364       H  0.22624115  0.16692843  0.83080750     0.09800
Br1365     Br  0.27755823  0.17805597  0.79988538    -0.05700
Br1366     Br  0.26088001  0.25801211  0.79626116    -0.02700
Br1367     Br  0.19997994  0.18630156  0.77725612     0.00200
Br1368     Br  0.25564026  0.18673233  0.83723569    -0.04200
C1369       C  0.16899526  0.05400627  0.84886945    -0.11600
C1370       C  0.16084610  0.04733972  0.86276482     0.03900
C1371       C  0.16489014  0.03154763  0.86831162    -0.12100
C1372       C  0.17716168  0.02224745  0.86050110     0.18700
C1373       C  0.18536391  0.02884136  0.84671782    -0.09200
C1374       C  0.18126363  0.04459913  0.84103157    -0.02100
H1375       H  0.15861931  0.02657057  0.87900755     0.05300
C1376       C  0.18115100  0.00572831  0.86705632     0.20700
H1377       H  0.18772657  0.04953204  0.83043582     0.10400
C1378       C  0.17674179  0.99172197  0.85797922    -0.15500
C1379       C  0.17913715  0.97587858  0.86439137     0.03400
C1380       C  0.18615968  0.97388750  0.88022287    -0.10800
C1381       C  0.19072215  0.98800205  0.88915935    -0.00900
C1382       C  0.18829143  0.00378669  0.88272915    -0.06000
H1383       H  0.17096230  0.99315575  0.84602802     0.06400
H1384       H  0.19626797  0.98677692  0.90123605     0.09800
Br1385     Br  0.20266528  0.01706247  0.83571470    -0.05700
Br1386     Br  0.14523481  0.05947332  0.87577189    -0.02700
Br1387     Br  0.17111172  0.95779306  0.85145815     0.00200
Br1388     Br  0.19509938  0.02232557  0.89573748    -0.04200
C1389       C  0.37184124  0.48087864  0.87565459    -0.11600
C1390       C  0.36069010  0.49190116  0.86823604     0.03900
C1391       C  0.36635691  0.50699922  0.86215859    -0.12100
C1392       C  0.38311906  0.51120738  0.86304397     0.18700
C1393       C  0.39430264  0.50002288  0.87020919    -0.09200
C1394       C  0.38857460  0.48508256  0.87661874    -0.02100
H1395       H  0.35760350  0.51562762  0.85694109     0.05300
C1396       C  0.38835538  0.52778361  0.85750057     0.20700
H1397       H  0.39726351  0.47657411  0.88213346     0.10400
C1398       C  0.39430828  0.53900290  0.86920792    -0.15500
C1399       C  0.39775600  0.55532474  0.86489134     0.03400
C1400       C  0.39502112  0.56074048  0.84858275    -0.10800
C1401       C  0.38935783  0.54941765  0.83679723    -0.00900
C1402       C  0.38619425  0.53301036  0.84108810    -0.06000
H1403       H  0.39578206  0.53516353  0.88191448     0.06400
H1404       H  0.38741019  0.55335442  0.82418730     0.09800
Br1405     Br  0.41754585  0.50427803  0.87092313    -0.05700
Br1406     Br  0.33751566  0.48737180  0.86699913    -0.02700
Br1407     Br  0.40468493  0.56986330  0.88220437     0.00200
Br1408     Br  0.37927561  0.51810209  0.82409423    -0.04200
C1409       C  0.31575897  0.27978746  0.81086185    -0.11600
C1410       C  0.33179989  0.28428959  0.81590376     0.03900
C1411       C  0.33417570  0.29871202  0.82499112    -0.12100
C1412       C  0.32076643  0.30851604  0.82977686     0.18700
C1413       C  0.30471080  0.30377783  0.82519369    -0.09200
C1414       C  0.30234951  0.28961801  0.81569880    -0.02100
H1415       H  0.34655828  0.30217754  0.82858385     0.05300
C1416       C  0.32379574  0.32353723  0.83963529     0.20700
H1417       H  0.28995338  0.28630390  0.81202139     0.10400
C1418       C  0.31916301  0.33895646  0.83332235    -0.15500
C1419       C  0.32150646  0.35338091  0.84247572     0.03400
C1420       C  0.32923509  0.35255944  0.85806330    -0.10800
C1421       C  0.33404219  0.33707246  0.86419183    -0.00900
C1422       C  0.33123616  0.32266995  0.85526440    -0.06000
H1423       H  0.31335704  0.33972137  0.82132463     0.06400
H1424       H  0.34001514  0.33605962  0.87607260     0.09800
Br1425     Br  0.28554465  0.31578835  0.83214832    -0.05700
Br1426     Br  0.35079558  0.27072826  0.81188360    -0.02700
Br1427     Br  0.31247089  0.37331881  0.83351673     0.00200
Br1428     Br  0.33705601  0.30210283  0.86543495    -0.04200
C1429       C  0.99166479  0.37567702  0.35735737    -0.11600
C1430       C  0.00523885  0.36946255  0.36620606     0.03900
C1431       C  0.02123190  0.37427662  0.36189732    -0.12100
C1432       C  0.02398217  0.38513245  0.34871193     0.18700
C1433       C  0.01050729  0.39045936  0.33916396    -0.09200
C1434       C  0.99449396  0.38572924  0.34354210    -0.02100
H1435       H  0.03157419  0.36974055  0.36901766     0.05300
C1436       C  0.04085526  0.39141458  0.34574491     0.20700
H1437       H  0.98417617  0.39039161  0.33646921     0.10400
C1438       C  0.04958447  0.38650671  0.33165514    -0.15500
C1439       C  0.06564516  0.39217804  0.32876202     0.03400
C1440       C  0.07334249  0.40271696  0.34028734    -0.10800
C1441       C  0.06439467  0.40787875  0.35418047    -0.00900
C1442       C  0.04830995  0.40235520  0.35694544    -0.06000
H1443       H  0.04381348  0.37834910  0.32280910     0.06400
H1444       H  0.06999757  0.41610862  0.36306517     0.09800
Br1445     Br  0.01329030  0.40487903  0.32062191    -0.05700
Br1446     Br  0.00264250  0.35375251  0.38368712    -0.02700
Br1447     Br  0.07581556  0.38618659  0.30825751     0.00200
Br1448     Br  0.03680314  0.41045659  0.37596881    -0.04200
C1449       C  0.17744699  0.58320778  0.38415304    -0.11600
C1450       C  0.16596545  0.57921623  0.37173868     0.03900
C1451       C  0.16387265  0.56276046  0.36695207    -0.12100
C1452       C  0.17303730  0.55014605  0.37440920     0.18700
C1453       C  0.18442228  0.55409907  0.38684570    -0.09200
C1454       C  0.18648478  0.57050589  0.39167812    -0.02100
H1455       H  0.15492077  0.55975155  0.35752055     0.05300
C1456       C  0.17039634  0.53290636  0.36921410     0.20700
H1457       H  0.19531976  0.57337843  0.40126106     0.10400
C1458       C  0.17944144  0.52657461  0.35593867    -0.15500
C1459       C  0.17691827  0.51041411  0.35041554     0.03400
C1460       C  0.16528809  0.50020418  0.35844330    -0.10800
C1461       C  0.15625626  0.50667664  0.37175129    -0.00900
C1462       C  0.15867807  0.52287706  0.37709931    -0.06000
H1463       H  0.18826747  0.53437148  0.34963655     0.06400
H1464       H  0.14720823  0.49911532  0.37801699     0.09800
Br1465     Br  0.19737745  0.53747140  0.39753412    -0.05700
Br1466     Br  0.15199977  0.59550735  0.36182337    -0.02700
Br1467     Br  0.18854868  0.50376096  0.33092199     0.00200
Br1468     Br  0.14547806  0.53096356  0.39497380    -0.04200
C1469       C  0.26993519  0.32356128  0.29268760    -0.11600
C1470       C  0.26840850  0.33099503  0.30834911     0.03900
C1471       C  0.25447802  0.34042495  0.31204640    -0.12100
C1472       C  0.24213014  0.34295915  0.30025548     0.18700
C1473       C  0.24371022  0.33573796  0.28456276    -0.09200
C1474       C  0.25746313  0.32600686  0.28094711    -0.02100
H1475       H  0.25355344  0.34634437  0.32398023     0.05300
C1476       C  0.22849009  0.35434399  0.30416248     0.20700
H1477       H  0.25852768  0.32047107  0.26884315     0.10400
C1478       C  0.22840008  0.37000758  0.29689245    -0.15500
C1479       C  0.21628287  0.38156114  0.30094718     0.03400
C1480       C  0.20387407  0.37743480  0.31242428    -0.10800
C1481       C  0.20384529  0.36162597  0.31949497    -0.00900
C1482       C  0.21613717  0.35017338  0.31560658    -0.06000
H1483       H  0.23792035  0.37330142  0.28811624     0.06400
H1484       H  0.19441817  0.35828657  0.32834960     0.09800
Br1485     Br  0.22753478  0.33899718  0.26764240    -0.05700
Br1486     Br  0.28562459  0.33018474  0.32456152    -0.02700
Br1487     Br  0.21695755  0.40239499  0.28978473     0.00200
Br1488     Br  0.21559035  0.32903660  0.32620130    -0.04200
C1489       C  0.37617779  0.09074777  0.38363647    -0.11600
C1490       C  0.38983728  0.08638101  0.37390723     0.03900
C1491       C  0.39208413  0.06996221  0.36924795    -0.12100
C1492       C  0.38069336  0.05788619  0.37400961     0.18700
C1493       C  0.36679568  0.06234080  0.38338227    -0.09200
C1494       C  0.36467396  0.07872188  0.38822749    -0.02100
H1495       H  0.40282350  0.06655585  0.36207644     0.05300
C1496       C  0.38403157  0.04054351  0.36999960     0.20700
H1497       H  0.35409708  0.08207562  0.39566475     0.10400
C1498       C  0.39413656  0.03140930  0.38056299    -0.15500
C1499       C  0.39723357  0.01474835  0.37757268     0.03400
C1500       C  0.39017010  0.00700712  0.36366086    -0.10800
C1501       C  0.38005707  0.01628142  0.35308264    -0.00900
C1502       C  0.37703062  0.03296313  0.35611965    -0.06000
H1503       H  0.39938966  0.03722705  0.39137161     0.06400
H1504       H  0.37460257  0.01057649  0.34232352     0.09800
Br1505     Br  0.35065662  0.04638808  0.39003457    -0.05700
Br1506     Br  0.40592353  0.10235558  0.36720285    -0.02700
Br1507     Br  0.41005516  0.00318138  0.39374825     0.00200
Br1508     Br  0.36335110  0.04498979  0.34105985    -0.04200
C1509       C  0.33407621  0.21693781  0.36205954    -0.11600
C1510       C  0.32148885  0.22833730  0.36582625     0.03900
C1511       C  0.31705410  0.24029432  0.35423528    -0.12100
C1512       C  0.32485964  0.24100317  0.33883544     0.18700
C1513       C  0.33730725  0.22959338  0.33500798    -0.09200
C1514       C  0.34179105  0.21766621  0.34656754    -0.02100
H1515       H  0.30732385  0.24896613  0.35714589     0.05300
C1516       C  0.31974693  0.25366427  0.32687193     0.20700
H1517       H  0.35145386  0.20899270  0.34346133     0.10400
C1518       C  0.33005690  0.26721595  0.32401102    -0.15500
C1519       C  0.32536054  0.27968162  0.31309276     0.03400
C1520       C  0.31010097  0.27863677  0.30483784    -0.10800
C1521       C  0.29982872  0.26500870  0.30768998    -0.00900
C1522       C  0.30457815  0.25252806  0.31857340    -0.06000
H1523       H  0.34168521  0.26819953  0.33049476     0.06400
H1524       H  0.28808312  0.26408751  0.30141367     0.09800
Br1525     Br  0.34816684  0.22957232  0.31399675    -0.05700
Br1526     Br  0.30901826  0.22744991  0.38591951    -0.02700
Br1527     Br  0.33973732  0.29832684  0.31076620     0.00200
Br1528     Br  0.29018038  0.23400213  0.32154160    -0.04200
C1529       C  0.38579287  0.18203926  0.48262171    -0.11600
C1530       C  0.39049745  0.19805030  0.48762801     0.03900
C1531       C  0.39480040  0.20095828  0.50405397    -0.12100
C1532       C  0.39493620  0.18811280  0.51558796     0.18700
C1533       C  0.39057016  0.17210761  0.51059290    -0.09200
C1534       C  0.38599138  0.16921215  0.49427019    -0.02100
H1535       H  0.39835818  0.21326497  0.50781202     0.05300
C1536       C  0.39977562  0.19158662  0.53275322     0.20700
H1537       H  0.38252976  0.15683061  0.49070106     0.10400
C1538       C  0.38798644  0.19006885  0.54528922    -0.15500
C1539       C  0.39225286  0.19258368  0.56177437     0.03400
C1540       C  0.40859784  0.19692630  0.56587735    -0.10800
C1541       C  0.42032603  0.19861451  0.55325665    -0.00900
C1542       C  0.41603660  0.19603117  0.53679639    -0.06000
H1543       H  0.37547274  0.18655622  0.54223511     0.06400
H1544       H  0.43292013  0.20190784  0.55621310     0.09800
Br1545     Br  0.39131010  0.15368643  0.52543579    -0.05700
Br1546     Br  0.39283597  0.21617856  0.47261017    -0.02700
Br1547     Br  0.37553772  0.18838574  0.57800527     0.00200
Br1548     Br  0.43296408  0.19802117  0.52038204    -0.04200
C1549       C  0.39355824  0.37751393  0.06131956    -0.11600
C1550       C  0.38308023  0.36608762  0.05335794     0.03900
C1551       C  0.37725862  0.36938176  0.03745850    -0.12100
C1552       C  0.38230656  0.38349834  0.02884930     0.18700
C1553       C  0.39323855  0.39459264  0.03653705    -0.09200
C1554       C  0.39858214  0.39163662  0.05264019    -0.02100
H1555       H  0.36896390  0.36069439  0.03164332     0.05300
C1556       C  0.37605459  0.38654799  0.01194057     0.20700
H1557       H  0.40673439  0.40049211  0.05838836     0.10400
C1558       C  0.36737245  0.40115976  0.00871186    -0.15500
C1559       C  0.36236026  0.40515466  0.99272885     0.03400
C1560       C  0.36572074  0.39424728  0.97964697    -0.10800
C1561       C  0.37352337  0.37918612  0.98299833    -0.00900
C1562       C  0.37881141  0.37531605  0.99894752    -0.06000
H1563       H  0.36470245  0.40963772  0.01867396     0.06400
H1564       H  0.37609871  0.37066538  0.97304652     0.09800
Br1565     Br  0.40192036  0.41358666  0.02537258    -0.05700
Br1566     Br  0.37752418  0.34502294  0.06259066    -0.02700
Br1567     Br  0.35039928  0.42532936  0.98965084     0.00200
Br1568     Br  0.39064112  0.35504839  0.00197318    -0.04200
C1569       C  0.37057571  0.33891075  0.18942776    -0.11600
C1570       C  0.37570427  0.32742042  0.20143563     0.03900
C1571       C  0.36471741  0.32232979  0.21371276    -0.12100
C1572       C  0.34853687  0.32836256  0.21418585     0.18700
C1573       C  0.34322962  0.33943119  0.20192949    -0.09200
C1574       C  0.35420879  0.34456214  0.18964506    -0.02100
H1575       H  0.36883609  0.31367683  0.22301261     0.05300
C1576       C  0.33767892  0.32354114  0.22800825     0.20700
H1577       H  0.35002879  0.35326422  0.18042181     0.10400
C1578       C  0.33383987  0.33526839  0.24009355    -0.15500
C1579       C  0.32431742  0.33103819  0.25382438     0.03400
C1580       C  0.31834572  0.31478499  0.25556465    -0.10800
C1581       C  0.32223587  0.30304953  0.24344864    -0.00900
C1582       C  0.33182440  0.30730497  0.22975210    -0.06000
H1583       H  0.33858085  0.34770345  0.23899273     0.06400
H1584       H  0.31772352  0.29053784  0.24461509     0.09800
Br1585     Br  0.32106833  0.34766729  0.20140129    -0.05700
Br1586     Br  0.39715725  0.31746478  0.20114822    -0.02700
Br1587     Br  0.32093959  0.34766418  0.27032554     0.00200
Br1588     Br  0.33634648  0.29066104  0.21359155    -0.04200
C1589       C  0.48665901  0.40135327  0.15762679    -0.11600
C1590       C  0.48868771  0.41051851  0.17229077     0.03900
C1591       C  0.50424207  0.41668714  0.17646475    -0.12100
C1592       C  0.51791665  0.41380432  0.16631660     0.18700
C1593       C  0.51599068  0.40440705  0.15187424    -0.09200
C1594       C  0.50041292  0.39850364  0.14750902    -0.02100
H1595       H  0.50567472  0.42386085  0.18763232     0.05300
C1596       C  0.53418206  0.42034865  0.17116426     0.20700
H1597       H  0.49912608  0.39126382  0.13636995     0.10400
C1598       C  0.54234760  0.41340827  0.18470221    -0.15500
C1599       C  0.55814946  0.41868841  0.18913245     0.03400
C1600       C  0.56611144  0.43101096  0.17976314    -0.10800
C1601       C  0.55754420  0.43845325  0.16666942    -0.00900
C1602       C  0.54167987  0.43330080  0.16240399    -0.06000
H1603       H  0.53641929  0.40376844  0.19179621     0.06400
H1604       H  0.56330454  0.44812757  0.15949462     0.09800
Br1605     Br  0.53443712  0.39858131  0.13824233    -0.05700
Br1606     Br  0.47066501  0.41584863  0.18666321    -0.02700
Br1607     Br  0.56762644  0.40939159  0.20870333     0.00200
Br1608     Br  0.53062229  0.44446411  0.14471798    -0.04200
loop_ 
_geom_bond_atom_site_label_1 
_geom_bond_atom_site_label_2 
_geom_bond_distance 
_geom_bond_site_symmetry_2 
_ccdc_geom_bond_type 
N1            N2   1.321       .  A
N1            C5   1.345       .  A
N1           Cu9   2.078       .  S
N2            C3   1.344       .  A
N2           Cu8   2.072       .  S
C3            C4   1.386       .  A
C3            H6   1.081       .  S
C4            C5   1.388       .  A
C4         C1549   1.485       .  S
C5            H7   1.082       .  S
Cu8          N11   2.072       .  S
Cu9          N19   2.078       .  S
Cu10         N12   2.074       .  S
Cu10         N18   2.073       .  S
N11          N12   1.321       .  A
N11          C15   1.345       .  A
N12          C13   1.345       .  A
C13          C14   1.385       .  A
C13          H16   1.082       .  S
C14          C15   1.384       .  A
C14        C1569   1.479       .  S
C15          H17   1.082       .  S
N18          N19   1.322       .  A
N18          C22   1.345       .  A
N19          C20   1.345       .  A
C20          C21   1.385       .  A
C20          H23   1.082       .  S
C21          C22   1.384       .  A
C21        C1589   1.479       .  S
C22          H24   1.082       .  S
N25          N26   1.321       .  A
N25          C29   1.342       .  A
N25         Cu33   2.067       .  S
N26          C27   1.344       .  A
N26         Cu32   2.071       .  S
C27          C28   1.386       .  A
C27          H30   1.081       .  S
C28          C29   1.385       .  A
C28        C1529   1.481       .  S
C29          H31   1.082       .  S
Cu32         N35   2.071       .  S
Cu33         N43   2.067       .  S
Cu34         N36   2.061       .  S
Cu34         N42   2.060       .  S
N35          N36   1.321       .  A
N35          C39   1.345       .  A
N36          C37   1.342       .  A
C37          C38   1.382       .  A
C37          H40   1.082       .  S
C38          C39   1.385       .  A
C38        C1509   1.476       .  S
C39          H41   1.081       .  S
N42          N43   1.322       .  A
N42          C46   1.344       .  A
N43          C44   1.344       .  A
C44          C45   1.380       .  A
C44          H47   1.082       .  S
C45          C46   1.378       .  A
C45        C1489   1.463       .  S
C46          H48   1.082       .  S
C49          C50   1.403       .  A
C49          C54   1.402       .  A
C49        C1469   1.480       .  S
C50          C51   1.403       .  A
C50          H55   1.084       .  S
C51          C52   1.404       .  A
C51        C1580   1.481       .  S
C52          C53   1.403       .  A
C52          H56   1.084       .  S
C53          C54   1.402       .  A
C53        C1520   1.477       .  S
C54          H57   1.084       .  S
N58          N59   1.322       .  A
N58          C62   1.344       .  A
N58         Cu66   2.073       .  S
N59          C60   1.347       .  A
N59         Cu65   2.080       .  S
C60          C61   1.388       .  A
C60          H63   1.081       .  S
C61          C62   1.384       .  A
C61        C1460   1.484       .  S
C62          H64   1.082       .  S
Cu65         N68   2.080       .  S
Cu66         N76   2.073       .  S
Cu67         N69   2.074       .  S
Cu67         N75   2.074       .  S
N68          N69   1.323       .  A
N68          C72   1.346       .  A
N69          C70   1.345       .  A
C70          C71   1.383       .  A
C70          H73   1.082       .  S
C71          C72   1.385       .  A
C71        C1480   1.478       .  S
C72          H74   1.082       .  S
N75          N76   1.321       .  A
N75          C79   1.345       .  A
N76          C77   1.345       .  A
C77          C78   1.386       .  A
C77          H80   1.082       .  S
C78          C79   1.386       .  A
C78        C1440   1.482       .  S
C79          H81   1.081       .  S
N82          N83   1.321       .  A
N82          C86   1.344       .  A
N82         Cu90   2.072       .  S
N83          C84   1.345       .  A
N83         Cu89   2.063       .  S
C84          C85   1.383       .  A
C84          H87   1.082       .  S
C85          C86   1.384       .  A
C85        C1560   1.475       .  S
C86          H88   1.082       .  S
Cu89         N92   2.062       .  S
Cu90        N100   2.072       .  S
Cu91         N93   2.074       .  S
Cu91         N99   2.074       .  S
N92          N93   1.321       .  A
N92          C96   1.340       .  A
N93          C94   1.346       .  A
C94          C95   1.389       .  A
C94          H97   1.081       .  S
C95          C96   1.384       .  A
C95        C1420   1.483       .  S
C96          H98   1.082       .  S
N99         N100   1.323       .  A
N99         C103   1.345       .  A
N100        C101   1.344       .  A
C101        C102   1.381       .  A
C101        H104   1.082       .  S
C102        C103   1.382       .  A
C102       C1389   1.472       .  S
C103        H105   1.082       .  S
N106        N107   1.321       .  A
N106        C110   1.344       .  A
N106       Cu114   2.070       .  S
N107        C108   1.344       .  A
N107       Cu113   2.072       .  S
C108        C109   1.385       .  A
C108        H111   1.082       .  S
C109        C110   1.385       .  A
C109       C1369   1.481       .  S
C110        H112   1.081       .  S
Cu113       N116   2.072       .  S
Cu114       N124   2.070       .  S
Cu115       N117   2.064       .  S
Cu115       N123   2.064       .  S
N116        N117   1.322       .  A
N116        C120   1.344       .  A
N117        C118   1.344       .  A
C118        C119   1.382       .  A
C118        H121   1.082       .  S
C119        C120   1.383       .  A
C119       C1360   1.474       .  S
C120        H122   1.082       .  S
N123        N124   1.321       .  A
N123        C127   1.343       .  A
N124        C125   1.344       .  A
C125        C126   1.384       .  A
C125        H128   1.081       .  S
C126        C127   1.382       .  A
C126       C1340   1.475       .  S
C127        H129   1.082       .  S
C130        C131   1.404       .  A
C130        C135   1.401       .  A
C130       C1349   1.478       .  S
C131        C132   1.405       .  A
C131        H136   1.084       .  S
C132        C133   1.403       .  A
C132       C1409   1.482       .  S
C133        C134   1.399       .  A
C133        H137   1.084       .  S
C134        C135   1.399       .  A
C134       C1320   1.471       .  S
C135        H138   1.084       .  S
N139        N140   1.322       .  A
N139        C143   1.343       .  A
N139       Cu147   2.063       .  S
N140        C141   1.343       .  A
N140       Cu146   2.065       .  S
C141        C142   1.381       .  A
C141        H144   1.082       .  S
C142        C143   1.381       .  A
C142       C1300   1.469       .  S
C143        H145   1.082       .  S
Cu146       N149   2.065       .  S
Cu147       N157   2.064       .  S
Cu148       N150   2.062       .  S
Cu148       N156   2.062       .  S
N149        N150   1.321       .  A
N149        C153   1.344       .  A
N150        C151   1.343       .  A
C151        C152   1.381       .  A
C151        H154   1.082       .  S
C152        C153   1.381       .  A
C152       C1309   1.469       .  S
C153        H155   1.082       .  S
N156        N157   1.321       .  A
N156        C160   1.343       .  A
N157        C158   1.343       .  A
C158        C159   1.383       .  A
C158        H161   1.082       .  S
C159        C160   1.383       .  A
C159       C1540   1.475       .  S
C160        H162   1.081       .  S
N163        N164   1.322       .  A
N163        C167   1.347       .  A
N163       Cu171   2.088       .  S
N164        C165   1.344       .  A
N164       Cu170   2.064       .  S
C165        C166   1.381       .  A
C165        H168   1.082       .  S
C166        C167   1.387       .  A
C166       C1429   1.478       .  S
C167        H169   1.082       .  S
Cu170       N173   2.064       .  S
Cu171       N181   2.088       .  S
Cu172       N174   2.066       .  S
Cu172       N180   2.066       .  S
N173        N174   1.321       .  A
N173        C177   1.342       .  A
N174        C175   1.345       .  A
C175        C176   1.384       .  A
C175        H178   1.081       .  S
C176        C177   1.381       .  A
C176       C1269   1.473       .  S
C177        H179   1.082       .  S
N180        N181   1.323       .  A
N180        C184   1.343       .  A
N181        C182   1.346       .  A
C182        C183   1.386       .  A
C182        H185   1.082       .  S
C183        C184   1.381       .  A
C183       C1249   1.478       .  S
C184        H186   1.081       .  S
N187        N188   1.322       .  A
N187        C191   1.346       .  A
N187       Cu195   2.078       .  S
N188        C189   1.342       .  A
N188       Cu194   2.063       .  S
C189        C190   1.381       .  A
C189        H192   1.082       .  S
C190        C191   1.386       .  A
C190       C1229   1.475       .  S
C191        H193   1.082       .  S
Cu194       N197   2.063       .  S
Cu195       N205   2.078       .  S
Cu196       N198   2.066       .  S
Cu196       N204   2.066       .  S
N197        N198   1.320       .  A
N197        C201   1.344       .  A
N198        C199   1.342       .  A
C199        C200   1.384       .  A
C199        H202   1.081       .  S
C200        C201   1.385       .  A
C200       C1209   1.478       .  S
C201        H203   1.079       .  S
N204        N205   1.322       .  A
N204        C208   1.344       .  A
N205        C206   1.344       .  A
C206        C207   1.384       .  A
C206        H209   1.082       .  S
C207        C208   1.382       .  A
C207       C1200   1.475       .  S
C208        H210   1.082       .  S
C211        C212   1.402       .  A
C211        C216   1.402       .  A
C211       C1280   1.477       .  S
C212        C213   1.401       .  A
C212        H217   1.084       .  S
C213        C214   1.403       .  A
C213       C1169   1.475       .  S
C214        C215   1.404       .  A
C214        H218   1.084       .  S
C215        C216   1.404       .  A
C215       C1220   1.480       .  S
C216        H219   1.084       .  S
N220        N221   1.322       .  A
N220        C224   1.343       .  A
N220       Cu228   2.063       .  S
N221        C222   1.346       .  A
N221       Cu227   2.083       .  S
C222        C223   1.387       .  A
C222        H225   1.081       .  S
C223        C224   1.383       .  A
C223       C1600   1.480       .  S
C224        H226   1.082       .  S
Cu227       N230   2.083       .  S
Cu228       N238   2.062       .  S
Cu229       N231   2.067       .  S
Cu229       N237   2.067       .  S
N230        N231   1.323       .  A
N230        C234   1.348       .  A
N231        C232   1.342       .  A
C232        C233   1.380       .  A
C232        H235   1.082       .  S
C233        C234   1.386       .  A
C233       C1180   1.475       .  S
C234        H236   1.082       .  S
N237        N238   1.320       .  A
N237        C241   1.344       .  A
N238        C239   1.343       .  A
C239        C240   1.382       .  A
C239        H242   1.082       .  S
C240        C241   1.384       .  A
C240       C1160   1.475       .  S
C241        H243   1.081       .  S
N244        N245   1.321       .  A
N244        C248   1.342   1_565  A
N244       Cu252   2.068       .  S
N245        C246   1.346       .  A
N245       Cu251   2.077       .  S
C246        C247   1.388   1_565  A
C246        H249   1.081       .  S
C247        C248   1.385       .  A
C247       C1189   1.484       .  S
C248        H250   1.082       .  S
Cu251       N254   2.077       .  S
Cu252       N262   2.068       .  S
Cu253       N255   2.077       .  S
Cu253       N261   2.076       .  S
N254        N255   1.322       .  A
N254        C258   1.344       .  A
N255        C256   1.346       .  A
C256        C257   1.385       .  A
C256        H259   1.082       .  S
C257        C258   1.385       .  A
C257       C1140   1.482       .  S
C258        H260   1.081       .  S
N261        N262   1.322       .  A
N261        C265   1.345       .  A
N262        C263   1.344       .  A
C263        C264   1.383       .  A
C263        H266   1.082       .  S
C264        C265   1.385       .  A
C264       C1109   1.477       .  S
C265        H267   1.082       .  S
N268        N269   1.322       .  A
N268        C272   1.345       .  A
N268       Cu276   2.078       .  S
N269        C270   1.345       .  A
N269       Cu275   2.071       .  S
C270        C271   1.383       .  A
C270        H273   1.082       .  S
C271        C272   1.384       .  A
C271       C1089   1.478       .  S
C272        H274   1.082       .  S
Cu275       N278   2.071       .  S
Cu276       N286   2.078       .  S
Cu277       N279   2.073       .  S
Cu277       N285   2.073       .  S
N278        N279   1.322       .  A
N278        C282   1.343       .  A
N279        C280   1.346       .  A
C280        C281   1.384       .  A
C280        H283   1.082       .  S
C281        C282   1.383       .  A
C281       C1080   1.476       .  S
C282        H284   1.082       .  S
N285        N286   1.322       .  A
N285        C289   1.343       .  A
N286        C287   1.346       .  A
C287        C288   1.387       .  A
C287        H290   1.081       .  S
C288        C289   1.385       .  A
C288       C1149   1.483       .  S
C289        H291   1.082       .  S
C292        C293   1.402       .  A
C292        C297   1.405       .  A
C292       C1069   1.476       .  S
C293        C294   1.399       .  A
C293        H298   1.084       .  S
C294        C295   1.400       .  A
C294       C1049   1.471       .  S
C295        C296   1.402       .  A
C295        H299   1.084       .  S
C296        C297   1.405       .  A
C296       C1129   1.474       .  S
C297        H300   1.084       .  S
N301        N302   1.321       .  A
N301        C305   1.342       .  A
N301       Cu309   2.066       .  S
N302        C303   1.346       .  A
N302       Cu308   2.081       .  S
C303        C304   1.388       .  A
C303        H306   1.082       .  S
C304        C305   1.384       .  A
C304       C1009   1.482       .  S
C305        H307   1.081       .  S
Cu308       N311   2.081       .  S
Cu309       N319   2.066       .  S
Cu310       N312   2.076       .  S
Cu310       N318   2.075       .  S
N311        N312   1.322       .  A
N311        C315   1.345       .  A
N312        C313   1.344       .  A
C313        C314   1.387       .  A
C313        H316   1.080       .  S
C314        C315   1.388       .  A
C314       C1060   1.488       .  S
C315        H317   1.082       .  S
N318        N319   1.320       .  A
N318        C322   1.346       .  A
N319        C320   1.343       .  A
C320        C321   1.386       .  A
C320        H323   1.081       .  S
C321        C322   1.388       .  A
C321       C1029   1.485       .  S
C322        H324   1.082       .  S
N325        N326   1.322       .  A
N325        C329   1.342       .  A
N325       Cu333   2.061       .  S
N326        C327   1.346       .  A
N326       Cu332   2.071       .  S
C327        C328   1.383       .  A
C327        H330   1.082       .  S
C328        C329   1.380       .  A
C328       C1329   1.469   1_655  S
C329        H331   1.082       .  S
Cu332       N335   2.071       .  S
Cu333       N343   2.062       .  S
Cu334       N336   2.069       .  S
Cu334       N342   2.068       .  S
N335        N336   1.322       .  A
N335        C339   1.343       .  A
N336        C337   1.344       .  A
C337        C338   1.384       .  A
C337        H340   1.082       .  S
C338        C339   1.384       .  A
C338       C1000   1.477       .  S
C339        H341   1.081       .  S
N342        N343   1.321       .  A
N342        C346   1.344       .  A
N343        C344   1.343       .  A
C344        C345   1.381       .  A
C344        H347   1.082       .  S
C345        C346   1.383       .  A
C345       C1240   1.472       .  S
C346        H348   1.082       .  S
N349        N350   1.320       .  A
N349        C353   1.342       .  A
N349       Cu357   2.060       .  S
N350        C351   1.345       .  A
N350       Cu356   2.072       .  S
C351        C352   1.386       .  A
C351        H354   1.082       .  S
C352        C353   1.384       .  A
C352        C969   1.479       .  S
C353        H355   1.081       .  S
Cu356       N359   2.073       .  S
Cu357       N367   2.059       .  S
Cu358       N360   2.071       .  S
Cu358       N366   2.070       .  S
N359        N360   1.323       .  A
N359        C363   1.343       .  A
N360        C361   1.345       .  A
C361        C362   1.381       .  A
C361        H364   1.082       .  S
C362        C363   1.382       .  A
C362        C960   1.472       .  S
C363        H365   1.082       .  S
N366        N367   1.321       .  A
N366        C370   1.345       .  A
N367        C368   1.341       .  A
C368        C369   1.380       .  A
C368        H371   1.082       .  S
C369        C370   1.383       .  A
C369       C1289   1.471       .  S
C370        H372   1.082       .  S
C373        C374   1.405       .  A
C373        C378   1.403       .  A
C373        C949   1.478       .  S
C374        C375   1.403       .  A
C374        H379   1.084       .  S
C375        C376   1.399       .  A
C375        C989   1.469       .  S
C376        C377   1.398       .  A
C376        H380   1.084       .  S
C377        C378   1.399       .  A
C377        C929   1.467       .  S
C378        H381   1.084       .  S
N382        N383   1.321       .  A
N382        C386   1.341       .  A
N382       Cu390   2.059       .  S
N383        C384   1.343       .  A
N383       Cu389   2.063       .  S
C384        C385   1.383       .  A
C384        H387   1.082       .  S
C385        C386   1.382       .  A
C385        C920   1.472       .  S
C386        H388   1.081       .  S
Cu389       N392   2.064       .  S
Cu390       N400   2.060       .  S
Cu391       N393   2.068       .  S
Cu391       N399   2.068       .  S
N392        N393   1.322       .  A
N392        C396   1.343       .  A
N393        C394   1.343       .  A
C394        C395   1.383       .  A
C394        H397   1.082       .  S
C395        C396   1.382       .  A
C395        C940   1.474       .  S
C396        H398   1.082       .  S
N399        N400   1.321       .  A
N399        C403   1.345       .  A
N400        C401   1.342       .  A
C401        C402   1.382       .  A
C401        H404   1.082       .  S
C402        C403   1.385       .  A
C402       C1260   1.475       .  S
C403        H405   1.081       .  S
N406        N407   1.322       .  A
N406        C410   1.344       .  A
N406       Cu414   2.072       .  S
N407        C408   1.346       .  A
N407       Cu413   2.070       .  S
C408        C409   1.384       .  A
C408        H411   1.082       .  S
C409        C410   1.383       .  A
C409        C889   1.475       .  S
C410        H412   1.082       .  S
Cu413       N416   2.070       .  S
Cu414       N424   2.072       .  S
Cu415       N417   2.072       .  S
Cu415       N423   2.072       .  S
N416        N417   1.323       .  A
N416        C420   1.343       .  A
N417        C418   1.345       .  A
C418        C419   1.383       .  A
C418        H421   1.082       .  S
C419        C420   1.382       .  A
C419        C869   1.474       .  S
C420        H422   1.082       .  S
N423        N424   1.322       .  A
N423        C427   1.346       .  A
N424        C425   1.344       .  A
C425        C426   1.382       .  A
C425        H428   1.082       .  S
C426        C427   1.382       .  A
C426       C1100   1.474       .  S
C427        H429   1.082       .  S
N430        N431   1.322       .  A
N430        C434   1.345       .  A
N430       Cu438   2.073       .  S
N431        C432   1.345       .  A
N431       Cu437   2.077       .  S
C432        C433   1.386       .  A
C432        H435   1.081       .  S
C433        C434   1.385       .  A
C433       C1020   1.481       .  S
C434        H436   1.082       .  S
Cu437       N440   2.077       .  S
Cu438       N448   2.073       .  S
Cu439       N441   2.064       .  S
Cu439       N447   2.064       .  S
N440        N441   1.322       .  A
N440        C444   1.345       .  A
N441        C442   1.344       .  A
C442        C443   1.381       .  A
C442        H445   1.082       .  S
C443        C444   1.384       .  A
C443        C860   1.474       .  S
C444        H446   1.082       .  S
N447        N448   1.321       .  A
N447        C451   1.344       .  A
N448        C449   1.344       .  A
C449        C450   1.386       .  A
C449        H452   1.081       .  S
C450        C451   1.384       .  A
C450        C980   1.479   1_565  S
C451        H453   1.082       .  S
C454        C455   1.403       .  A
C454        C459   1.401       .  A
C454        C880   1.475       .  S
C455        C456   1.402       .  A
C455        H460   1.084       .  S
C456        C457   1.400       .  A
C456        C829   1.473       .  S
C457        C458   1.399       .  A
C457        H461   1.084       .  S
C458        C459   1.401       .  A
C458        C849   1.471       .  S
C459        H462   1.084       .  S
N463        N464   1.320       .  A
N463        C467   1.341       .  A
N463       Cu471   2.057       .  S
N464        C465   1.343       .  A
N464       Cu470   2.065       .  S
C465        C466   1.385       .  A
C465        H468   1.082       .  S
C466        C467   1.383       .  A
C466        C809   1.475       .  S
C467        H469   1.082       .  S
Cu470       N473   2.065       .  S
Cu471       N481   2.056       .  S
Cu472       N474   2.066       .  S
Cu472       N480   2.065       .  S
N473        N474   1.322       .  A
N473        C477   1.343       .  A
N474        C475   1.343       .  A
C475        C476   1.382       .  A
C475        H478   1.082       .  S
C476        C477   1.382       .  A
C476        C840   1.472       .  S
C477        H479   1.082       .  S
N480        N481   1.321       .  A
N480        C484   1.344       .  A
N481        C482   1.340       .  A
C482        C483   1.382       .  A
C482        H485   1.082       .  S
C483        C484   1.384       .  A
C483        C909   1.473       .  S
C484        H486   1.081       .  S
N487        N488   1.322       .  A
N487        C491   1.343       .  A
N487       Cu495   2.065       .  S
N488        C489   1.345       .  A
N488       Cu494   2.076       .  S
C489        C490   1.385       .  A
C489        H492   1.082       .  S
C490        C491   1.383       .  A
C490       C1500   1.478   1_565  S
C491        H493   1.081       .  S
Cu494       N497   2.076       .  S
Cu495       N505   2.065       .  S
Cu496       N498   2.072       .  S
Cu496       N504   2.072       .  S
N497        N498   1.320       .  A
N497        C501   1.346       .  A
N498        C499   1.344       .  A
C499        C500   1.387       .  A
C499        H502   1.082       .  S
C500        C501   1.390       .  A
C500        C789   1.490       .  S
C501        H503   1.073       .  S
N504        N505   1.320       .  A
N504        C508   1.344       .  A
N505        C506   1.343       .  A
C506        C507   1.386       .  A
C506        H509   1.081       .  S
C507        C508   1.386       .  A
C507       C1040   1.483       .  S
C508        H510   1.082       .  S
N511        N512   1.322       .  A
N511        C515   1.345       .  A
N511       Cu519   2.079       .  S
N512        C513   1.345       .  A
N512       Cu518   2.072       .  S
C513        C514   1.385       .  A
C513        H516   1.082       .  S
C514        C515   1.386       .  A
C514       C1120   1.481       .  S
C515        H517   1.081       .  S
Cu518       N521   2.073       .  S
Cu519       N529   2.080       .  S
Cu520       N522   2.084       .  S
Cu520       N528   2.084       .  S
N521        N522   1.322       .  A
N521        C525   1.345       .  A
N522        C523   1.345       .  A
C523        C524   1.387       .  A
C523        H526   1.081       .  S
C524        C525   1.386       .  A
C524        C769   1.485       .  S
C525        H527   1.080       .  S
N528        N529   1.323       .  A
N528        C532   1.348       .  A
N529        C530   1.346       .  A
C530        C531   1.384       .  A
C530        H533   1.082       .  S
C531        C532   1.386       .  A
C531        C749   1.482       .  S
C532        H534   1.082       .  S
C535        C536   1.406       .  A
C535        C540   1.406       .  A
C535        C800   1.489       .  S
C536        C537   1.402       .  A
C536        H541   1.084       .  S
C537        C538   1.401       .  A
C537        C740   1.474       .  S
C538        C539   1.403       .  A
C538        H542   1.084       .  S
C539        C540   1.406       .  A
C539        C780   1.482       .  S
C540        H543   1.083       .  S
N544        N545   1.321       .  A
N544        C548   1.342       .  A
N544       Cu552   2.064       .  S
N545        C546   1.347       .  A
N545       Cu551   2.077       .  S
C546        C547   1.388       .  A
C546        H549   1.082       .  S
C547        C548   1.383       .  A
C547        C709   1.482       .  S
C548        H550   1.081       .  S
Cu551       N554   2.078       .  S
Cu552       N562   2.065       .  S
Cu553       N555   2.085       .  S
Cu553       N561   2.084       .  S
N554        N555   1.324       .  A
N554        C558   1.345       .  A
N555        C556   1.346       .  A
C556        C557   1.385       .  A
C556        H559   1.081       .  S
C557        C558   1.383       .  A
C557        C729   1.481       .  S
C558        H560   1.082       .  S
N561        N562   1.321       .  A
N561        C565   1.348       .  A
N562        C563   1.343       .  A
C563        C564   1.381       .  A
C563        H566   1.082       .  S
C564        C565   1.387       .  A
C564       C1449   1.478       .  S
C565        H567   1.082       .  S
N568        N569   1.322       .  A
N568        C572   1.346       .  A
N568       Cu576   2.078       .  S
N569        C570   1.348       .  A
N569       Cu575   2.093       .  S
C570        C571   1.390       .  A
C570        H573   1.081       .  S
C571        C572   1.386       .  A
C571        C760   1.490       .  S
C572        H574   1.082       .  S
Cu575       N578   2.093       .  S
Cu576       N586   2.077       .  S
Cu577       N579   2.072       .  S
Cu577       N585   2.071       .  S
N578        N579   1.323       .  A
N578        C582   1.349       .  A
N579        C580   1.343       .  A
C580        C581   1.383       .  A
C580        H583   1.082       .  S
C581        C582   1.388       .  A
C581        C689   1.484       .  S
C582        H584   1.082       .  S
N585        N586   1.321       .  A
N585        C589   1.346       .  A
N586        C587   1.344       .  A
C587        C588   1.386       .  A
C587        H590   1.082       .  S
C588        C589   1.386       .  A
C588       C1380   1.484       .  S
C589        H591   1.081       .  S
N592        N593   1.320       .  A
N592        C596   1.344       .  A
N592       Cu600   2.068       .  S
N593        C594   1.341       .  A
N593       Cu599   2.060       .  S
C594        C595   1.385       .  A
C594        H597   1.082       .  S
C595        C596   1.387       .  A
C595        C820   1.481       .  S
C596        H598   1.080       .  S
Cu599       N602   2.061       .  S
Cu600       N610   2.069       .  S
Cu601       N603   2.069       .  S
Cu601       N609   2.070       .  S
N602        N603   1.321       .  A
N602        C606   1.342       .  A
N603        C604   1.344       .  A
C604        C605   1.385       .  A
C604        H607   1.082       .  S
C605        C606   1.383       .  A
C605        C669   1.476       .  S
C606        H608   1.082       .  S
N609        N610   1.323       .  A
N609        C613   1.345       .  A
N610        C611   1.343       .  A
C611        C612   1.381       .  A
C611        H614   1.082       .  S
C612        C613   1.382       .  A
C612        C720   1.472       .  S
C613        H615   1.082       .  S
C616        C617   1.402       .  A
C616        C621   1.399       .  A
C616        C680   1.471       .  S
C617        C618   1.404       .  A
C617        H622   1.084       .  S
C618        C619   1.406       .  A
C618        C700   1.481       .  S
C619        C620   1.405       .  A
C619        H623   1.084       .  S
C620        C621   1.400       .  A
C620        C649   1.477       .  S
C621        H624   1.084       .  S
N625        N626   1.323       .  A
N625        C629   1.344       .  A
N625       Cu633   2.069       .  S
N626        C627   1.346       .  A
N626       Cu632   2.084       .  S
C627        C628   1.385       .  A
C627        H630   1.082       .  S
C628        C629   1.383       .  A
C628       C1400   1.478       .  S
C629        H631   1.082       .  S
Cu632       N635   2.084       .  S
Cu633       N643   2.069       .  S
Cu634       N636   2.076       .  S
Cu634       N642   2.076       .  S
N635        N636   1.323       .  A
N635        C639   1.348       .  A
N636        C637   1.343       .  A
C637        C638   1.385       .  A
C637        H640   1.082       .  S
C638        C639   1.388       .  A
C638        C660   1.484       .  S
C639        H641   1.082       .  S
N642        N643   1.321       .  A
N642        C646   1.347       .  A
N643        C644   1.344       .  A
C644        C645   1.384       .  A
C644        H647   1.079       .  S
C645        C646   1.385       .  A
C645        C900   1.478       .  S
C646        H648   1.081       .  S
C649        C650   1.409       .  A
C649        C654   1.404       .  A
C650        C651   1.399       .  A
C650       Br666   1.919       .  S
C651        C652   1.402       .  A
C651        H655   1.083       .  S
C652        C653   1.407       .  A
C652        C656   1.476       .  S
C653        C654   1.399       .  A
C653       Br665   1.918       .  S
C654        H657   1.084       .  S
C656        C658   1.402       .  A
C656        C662   1.404       .  A
C658        C659   1.403       .  A
C658        H663   1.084       .  S
C659        C660   1.414       .  A
C659       Br667   1.919       .  S
C660        C661   1.406       .  A
C661        C662   1.397       .  A
C661        H664   1.083       .  S
C662       Br668   1.918       .  S
C669        C670   1.412       .  A
C669        C674   1.405       .  A
C670        C671   1.397       .  A
C670       Br686   1.920       .  S
C671        C672   1.400       .  A
C671        H675   1.084       .  S
C672        C673   1.406       .  A
C672        C676   1.472       .  S
C673        C674   1.397       .  A
C673       Br685   1.919       .  S
C674        H677   1.083       .  S
C676        C678   1.402       .  A
C676        C682   1.407       .  A
C678        C679   1.397       .  A
C678        H683   1.084       .  S
C679        C680   1.407       .  A
C679       Br687   1.918       .  S
C680        C681   1.403       .  A
C681        C682   1.398       .  A
C681        H684   1.084       .  S
C682       Br688   1.919       .  S
C689        C690   1.414       .  A
C689        C694   1.405       .  A
C690        C691   1.399       .  A
C690       Br706   1.920       .  S
C691        C692   1.401       .  A
C691        H695   1.084       .  S
C692        C693   1.409       .  A
C692        C696   1.483       .  S
C693        C694   1.402       .  A
C693       Br705   1.919       .  S
C694        H697   1.083       .  S
C696        C698   1.403       .  A
C696        C702   1.410       .  A
C698        C699   1.399       .  A
C698        H703   1.083       .  S
C699        C700   1.410       .  A
C699       Br707   1.920       .  S
C700        C701   1.404       .  A
C701        C702   1.401       .  A
C701        H704   1.084       .  S
C702       Br708   1.919       .  S
C709        C710   1.415       .  A
C709        C714   1.406       .  A
C710        C711   1.396       .  A
C710       Br726   1.921       .  S
C711        C712   1.400       .  A
C711        H715   1.084       .  S
C712        C713   1.407       .  A
C712        C716   1.477       .  S
C713        C714   1.400       .  A
C713       Br725   1.919       .  S
C714        H717   1.083       .  S
C716        C718   1.403       .  A
C716        C722   1.408       .  A
C718        C719   1.399       .  A
C718        H723   1.084       .  S
C719        C720   1.409       .  A
C719       Br727   1.919       .  S
C720        C721   1.402       .  A
C721        C722   1.396       .  A
C721        H724   1.084       .  S
C722       Br728   1.919       .  S
C729        C730   1.413       .  A
C729        C734   1.406       .  A
C730        C731   1.400       .  A
C730       Br746   1.919       .  S
C731        C732   1.401       .  A
C731        H735   1.084       .  S
C732        C733   1.406       .  A
C732        C736   1.478       .  S
C733        C734   1.400       .  A
C733       Br745   1.918       .  S
C734        H737   1.083       .  S
C736        C738   1.403       .  A
C736        C742   1.408       .  A
C738        C739   1.398       .  A
C738        H743   1.084       .  S
C739        C740   1.407       .  A
C739       Br747   1.919       .  S
C740        C741   1.402       .  A
C741        C742   1.400       .  A
C741        H744   1.083       .  S
C742       Br748   1.917       .  S
C749        C750   1.411       .  A
C749        C754   1.404       .  A
C750        C751   1.403       .  A
C750       Br766   1.919       .  S
C751        C752   1.404       .  A
C751        H755   1.083       .  S
C752        C753   1.410       .  A
C752        C756   1.487       .  S
C753        C754   1.402       .  A
C753       Br765   1.919       .  S
C754        H757   1.083       .  S
C756        C758   1.403       .  A
C756        C762   1.409       .  A
C758        C759   1.404       .  A
C758        H763   1.083       .  S
C759        C760   1.414   1_554  A
C759       Br767   1.919   1_554  S
C760        C761   1.407       .  A
C761        C762   1.401   1_556  A
C761        H764   1.083       .  S
C762       Br768   1.920       .  S
C769        C770   1.416       .  A
C769        C774   1.406       .  A
C770        C771   1.401       .  A
C770       Br786   1.919       .  S
C771        C772   1.400       .  A
C771        H775   1.083       .  S
C772        C773   1.405       .  A
C772        C776   1.477       .  S
C773        C774   1.398       .  A
C773       Br785   1.918       .  S
C774        H777   1.083       .  S
C776        C778   1.402       .  A
C776        C782   1.406       .  A
C778        C779   1.401       .  A
C778        H783   1.083       .  S
C779        C780   1.413       .  A
C779       Br787   1.920       .  S
C780        C781   1.404       .  A
C781        C782   1.398       .  A
C781        H784   1.083       .  S
C782       Br788   1.918       .  S
C789        C790   1.416       .  A
C789        C794   1.408       .  A
C790        C791   1.399       .  A
C790       Br806   1.920       .  S
C791        C792   1.402       .  A
C791        H795   1.083       .  S
C792        C793   1.409       .  A
C792        C796   1.486       .  S
C793        C794   1.399       .  A
C793       Br805   1.920       .  S
C794        H797   1.082       .  S
C796        C798   1.404       .  A
C796        C802   1.410       .  A
C798        C799   1.400       .  A
C798        H803   1.083       .  S
C799        C800   1.414       .  A
C799       Br807   1.921       .  S
C800        C801   1.406       .  A
C801        C802   1.398       .  A
C801        H804   1.083       .  S
C802       Br808   1.920       .  S
C809        C810   1.412       .  A
C809        C814   1.405       .  A
C810        C811   1.396   1_655  A
C810       Br826   1.920       .  S
C811        C812   1.400       .  A
C811        H815   1.084       .  S
C812        C813   1.406   1_455  A
C812        C816   1.472       .  S
C813        C814   1.396       .  A
C813       Br825   1.919       .  S
C814        H817   1.083       .  S
C816        C818   1.400       .  A
C816        C822   1.404       .  A
C818        C819   1.397       .  A
C818        H823   1.084       .  S
C819        C820   1.415       .  A
C819       Br827   1.920       .  S
C820        C821   1.408       .  A
C821        C822   1.396       .  A
C821        H824   1.083       .  S
C822       Br828   1.919       .  S
C829        C830   1.410       .  A
C829        C834   1.403       .  A
C830        C831   1.396       .  A
C830       Br846   1.920       .  S
C831        C832   1.400       .  A
C831        H835   1.084       .  S
C832        C833   1.406       .  A
C832        C836   1.470       .  S
C833        C834   1.398       .  A
C833       Br845   1.918       .  S
C834        H837   1.084       .  S
C836        C838   1.400       .  A
C836        C842   1.406       .  A
C838        C839   1.398       .  A
C838        H843   1.084       .  S
C839        C840   1.411       .  A
C839       Br847   1.920       .  S
C840        C841   1.403       .  A
C841        C842   1.396       .  A
C841        H844   1.083       .  S
C842       Br848   1.919       .  S
C849        C850   1.409       .  A
C849        C854   1.403       .  A
C850        C851   1.396       .  A
C850       Br866   1.920       .  S
C851        C852   1.401       .  A
C851        H855   1.084       .  S
C852        C853   1.406       .  A
C852        C856   1.470       .  S
C853        C854   1.398       .  A
C853       Br865   1.917       .  S
C854        H857   1.084       .  S
C856        C858   1.400       .  A
C856        C862   1.405       .  A
C858        C859   1.398       .  A
C858        H863   1.084       .  S
C859        C860   1.412       .  A
C859       Br867   1.919       .  S
C860        C861   1.403       .  A
C861        C862   1.397       .  A
C861        H864   1.083       .  S
C862       Br868   1.918       .  S
C869        C870   1.411       .  A
C869        C874   1.404       .  A
C870        C871   1.399       .  A
C870       Br886   1.919       .  S
C871        C872   1.401       .  A
C871        H875   1.084       .  S
C872        C873   1.405       .  A
C872        C876   1.472       .  S
C873        C874   1.397       .  A
C873       Br885   1.918       .  S
C874        H877   1.083       .  S
C876        C878   1.401       .  A
C876        C882   1.406       .  A
C878        C879   1.398       .  A
C878        H883   1.084       .  S
C879        C880   1.410       .  A
C879       Br887   1.920       .  S
C880        C881   1.403       .  A
C881        C882   1.398       .  A
C881        H884   1.083       .  S
C882       Br888   1.918       .  S
C889        C890   1.411       .  A
C889        C894   1.403       .  A
C890        C891   1.400       .  A
C890       Br906   1.919       .  S
C891        C892   1.403       .  A
C891        H895   1.084       .  S
C892        C893   1.406       .  A
C892        C896   1.477       .  S
C893        C894   1.398       .  A
C893       Br905   1.918       .  S
C894        H897   1.083       .  S
C896        C898   1.401       .  A
C896        C902   1.406       .  A
C898        C899   1.398       .  A
C898        H903   1.083       .  S
C899        C900   1.411       .  A
C899       Br907   1.920       .  S
C900        C901   1.405       .  A
C901        C902   1.400       .  A
C901        H904   1.083       .  S
C902       Br908   1.918       .  S
C909        C910   1.412       .  A
C909        C914   1.404       .  A
C910        C911   1.398       .  A
C910       Br926   1.920       .  S
C911        C912   1.401       .  A
C911        H915   1.084       .  S
C912        C913   1.404       .  A
C912        C916   1.468       .  S
C913        C914   1.393       .  A
C913       Br925   1.920       .  S
C914        H917   1.083       .  S
C916        C918   1.399       .  A
C916        C922   1.405       .  A
C918        C919   1.394       .  A
C918        H923   1.084       .  S
C919        C920   1.412       .  A
C919       Br927   1.920       .  S
C920        C921   1.405       .  A
C921        C922   1.396       .  A
C921        H924   1.083       .  S
C922       Br928   1.919       .  S
C929        C930   1.407       .  A
C929        C934   1.400       .  A
C930        C931   1.398       .  A
C930       Br946   1.919       .  S
C931        C932   1.401       .  A
C931        H935   1.083       .  S
C932        C933   1.406       .  A
C932        C936   1.469       .  S
C933        C934   1.396       .  A
C933       Br945   1.918       .  S
C934        H937   1.084       .  S
C936        C938   1.400       .  A
C936        C942   1.404       .  A
C938        C939   1.397       .  A
C938        H943   1.084       .  S
C939        C940   1.411       .  A
C939       Br947   1.920       .  S
C940        C941   1.405       .  A
C941        C942   1.396       .  A
C941        H944   1.083       .  S
C942       Br948   1.919       .  S
C949        C950   1.411       .  A
C949        C954   1.403       .  A
C950        C951   1.399       .  A
C950       Br966   1.920       .  S
C951        C952   1.403       .  A
C951        H955   1.083       .  S
C952        C953   1.409       .  A
C952        C956   1.478       .  S
C953        C954   1.396       .  A
C953       Br965   1.920       .  S
C954        H957   1.084       .  S
C956        C958   1.403       .  A
C956        C962   1.409       .  A
C958        C959   1.396       .  A
C958        H963   1.084       .  S
C959        C960   1.409       .  A
C959       Br967   1.920       .  S
C960        C961   1.403       .  A
C961        C962   1.399       .  A
C961        H964   1.084       .  S
C962       Br968   1.919       .  S
C969        C970   1.413       .  A
C969        C974   1.405       .  A
C970        C971   1.396       .  A
C970       Br986   1.920       .  S
C971        C972   1.401       .  A
C971        H975   1.084       .  S
C972        C973   1.408       .  A
C972        C976   1.479       .  S
C973        C974   1.399       .  A
C973       Br985   1.919       .  S
C974        H977   1.083       .  S
C976        C978   1.402       .  A
C976        C982   1.409       .  A
C978        C979   1.398       .  A
C978        H983   1.083       .  S
C979        C980   1.412       .  A
C979       Br987   1.919       .  S
C980        C981   1.405       .  A
C981        C982   1.398       .  A
C981        H984   1.083   1_545  S
C982       Br988   1.921       .  S
C989        C990   1.407       .  A
C989        C994   1.402       .  A
C990        C991   1.397       .  A
C990      Br1006   1.919       .  S
C991        C992   1.401       .  A
C991        H995   1.084       .  S
C992        C993   1.407       .  A
C992        C996   1.471       .  S
C993        C994   1.398       .  A
C993      Br1005   1.918       .  S
C994        H997   1.083       .  S
C996        C998   1.400       .  A
C996       C1002   1.405       .  A
C998        C999   1.398       .  A
C998       H1003   1.084       .  S
C999       C1000   1.412       .  A
C999      Br1007   1.920       .  S
C1000      C1001   1.405       .  A
C1001      C1002   1.396       .  A
C1001      H1004   1.083       .  S
C1002     Br1008   1.919       .  S
C1009      C1010   1.415       .  A
C1009      C1014   1.406       .  A
C1010      C1011   1.399       .  A
C1010     Br1026   1.920       .  S
C1011      C1012   1.400       .  A
C1011      H1015   1.084       .  S
C1012      C1013   1.406       .  A
C1012      C1016   1.476       .  S
C1013      C1014   1.399       .  A
C1013     Br1025   1.918       .  S
C1014      H1017   1.083       .  S
C1016      C1018   1.401       .  A
C1016      C1022   1.406       .  A
C1018      C1019   1.399       .  A
C1018      H1023   1.084       .  S
C1019      C1020   1.413       .  A
C1019     Br1027   1.919       .  S
C1020      C1021   1.406       .  A
C1021      C1022   1.399       .  A
C1021      H1024   1.083       .  S
C1022     Br1028   1.918       .  S
C1029      C1030   1.414       .  A
C1029      C1034   1.407       .  A
C1030      C1031   1.398       .  A
C1030     Br1046   1.920       .  S
C1031      C1032   1.401       .  A
C1031      H1035   1.084       .  S
C1032      C1033   1.408       .  A
C1032      C1036   1.480       .  S
C1033      C1034   1.399       .  A
C1033     Br1045   1.920       .  S
C1034      H1037   1.083       .  S
C1036      C1038   1.402       .  A
C1036      C1042   1.408       .  A
C1038      C1039   1.398       .  A
C1038      H1043   1.084       .  S
C1039      C1040   1.414       .  A
C1039     Br1047   1.920       .  S
C1040      C1041   1.406       .  A
C1041      C1042   1.398       .  A
C1041      H1044   1.083       .  S
C1042     Br1048   1.919       .  S
C1049      C1050   1.407       .  A
C1049      C1054   1.402       .  A
C1050      C1051   1.398       .  A
C1050     Br1066   1.919       .  S
C1051      C1052   1.402       .  A
C1051      H1055   1.083       .  S
C1052      C1053   1.407       .  A
C1052      C1056   1.474       .  S
C1053      C1054   1.398       .  A
C1053     Br1065   1.917       .  S
C1054      H1057   1.084       .  S
C1056      C1058   1.399       .  A
C1056      C1062   1.403       .  A
C1058      C1059   1.400       .  A
C1058      H1063   1.084       .  S
C1059      C1060   1.417       .  A
C1059     Br1067   1.920       .  S
C1060      C1061   1.408       .  A
C1061      C1062   1.398       .  A
C1061      H1064   1.082       .  S
C1062     Br1068   1.918       .  S
C1069      C1070   1.408       .  A
C1069      C1074   1.403       .  A
C1070      C1071   1.398       .  A
C1070     Br1086   1.919       .  S
C1071      C1072   1.403       .  A
C1071      H1075   1.084       .  S
C1072      C1073   1.410       .  A
C1072      C1076   1.480       .  S
C1073      C1074   1.400       .  A
C1073     Br1085   1.919       .  S
C1074      H1077   1.084       .  S
C1076      C1078   1.403       .  A
C1076      C1082   1.410       .  A
C1078      C1079   1.398       .  A
C1078      H1083   1.083       .  S
C1079      C1080   1.409       .  A
C1079     Br1087   1.919       .  S
C1080      C1081   1.403       .  A
C1081      C1082   1.399       .  A
C1081      H1084   1.083       .  S
C1082     Br1088   1.919       .  S
C1089      C1090   1.410       .  A
C1089      C1094   1.402       .  A
C1090      C1091   1.400       .  A
C1090     Br1106   1.919       .  S
C1091      C1092   1.405       .  A
C1091      H1095   1.083   1_554  S
C1092      C1093   1.412       .  A
C1092      C1096   1.486   1_554  S
C1093      C1094   1.398       .  A
C1093     Br1105   1.921       .  S
C1094      H1097   1.083       .  S
C1096      C1098   1.405       .  A
C1096      C1102   1.412       .  A
C1098      C1099   1.397       .  A
C1098      H1103   1.083       .  S
C1099      C1100   1.408       .  A
C1099     Br1107   1.920       .  S
C1100      C1101   1.402       .  A
C1101      C1102   1.401       .  A
C1101      H1104   1.084       .  S
C1102     Br1108   1.919       .  S
C1109      C1110   1.412       .  A
C1109      C1114   1.404       .  A
C1110      C1111   1.400       .  A
C1110     Br1126   1.919       .  S
C1111      C1112   1.401   1_655  A
C1111      H1115   1.083       .  S
C1112      C1113   1.406       .  A
C1112      C1116   1.475       .  S
C1113      C1114   1.398   1_455  A
C1113     Br1125   1.918       .  S
C1114      H1117   1.083       .  S
C1116      C1118   1.401       .  A
C1116      C1122   1.405       .  A
C1118      C1119   1.399       .  A
C1118      H1123   1.084       .  S
C1119      C1120   1.413       .  A
C1119     Br1127   1.919       .  S
C1120      C1121   1.407       .  A
C1121      C1122   1.399       .  A
C1121      H1124   1.083       .  S
C1122     Br1128   1.918       .  S
C1129      C1130   1.408       .  A
C1129      C1134   1.402       .  A
C1130      C1131   1.401       .  A
C1130     Br1146   1.918       .  S
C1131      C1132   1.403       .  A
C1131      H1135   1.083       .  S
C1132      C1133   1.407       .  A
C1132      C1136   1.476       .  S
C1133      C1134   1.398       .  A
C1133     Br1145   1.918       .  S
C1134      H1137   1.083       .  S
C1136      C1138   1.400       .  A
C1136      C1142   1.406       .  A
C1138      C1139   1.400       .  A
C1138      H1143   1.084       .  S
C1139      C1140   1.413       .  A
C1139     Br1147   1.920       .  S
C1140      C1141   1.406       .  A
C1141      C1142   1.399       .  A
C1141      H1144   1.083       .  S
C1142     Br1148   1.919       .  S
C1149      C1150   1.415       .  A
C1149      C1154   1.406       .  A
C1150      C1151   1.400       .  A
C1150     Br1166   1.919       .  S
C1151      C1152   1.401       .  A
C1151      H1155   1.084       .  S
C1152      C1153   1.404       .  A
C1152      C1156   1.474       .  S
C1153      C1154   1.397       .  A
C1153     Br1165   1.919       .  S
C1154      H1157   1.083       .  S
C1156      C1158   1.401       .  A
C1156      C1162   1.406       .  A
C1158      C1159   1.398       .  A
C1158      H1163   1.084       .  S
C1159      C1160   1.412       .  A
C1159     Br1167   1.919       .  S
C1160      C1161   1.404       .  A
C1161      C1162   1.398       .  A
C1161      H1164   1.084       .  S
C1162     Br1168   1.918       .  S
C1169      C1170   1.407       .  A
C1169      C1174   1.403       .  A
C1170      C1171   1.397       .  A
C1170     Br1186   1.916       .  S
C1171      C1172   1.402       .  A
C1171      H1175   1.083       .  S
C1172      C1173   1.411       .  A
C1172      C1176   1.480       .  S
C1173      C1174   1.400       .  A
C1173     Br1185   1.919       .  S
C1174      H1177   1.084       .  S
C1176      C1178   1.402       .  A
C1176      C1182   1.410       .  A
C1178      C1179   1.398       .  A
C1178      H1183   1.083       .  S
C1179      C1180   1.410       .  A
C1179     Br1187   1.919       .  S
C1180      C1181   1.403       .  A
C1181      C1182   1.399       .  A
C1181      H1184   1.083       .  S
C1182     Br1188   1.919       .  S
C1189      C1190   1.415       .  A
C1189      C1194   1.407       .  A
C1190      C1191   1.401       .  A
C1190     Br1206   1.919       .  S
C1191      C1192   1.401       .  A
C1191      H1195   1.084       .  S
C1192      C1193   1.406       .  A
C1192      C1196   1.476       .  S
C1193      C1194   1.396       .  A
C1193     Br1205   1.920       .  S
C1194      H1197   1.083       .  S
C1196      C1198   1.402       .  A
C1196      C1202   1.407       .  A
C1198      C1199   1.400       .  A
C1198      H1203   1.084       .  S
C1199      C1200   1.411       .  A
C1199     Br1207   1.919       .  S
C1200      C1201   1.404       .  A
C1201      C1202   1.397       .  A
C1201      H1204   1.083       .  S
C1202     Br1208   1.918       .  S
C1209      C1210   1.412       .  A
C1209      C1214   1.405       .  A
C1210      C1211   1.400       .  A
C1210     Br1226   1.920       .  S
C1211      C1212   1.402       .  A
C1211      H1215   1.083       .  S
C1212      C1213   1.406       .  A
C1212      C1216   1.475       .  S
C1213      C1214   1.395       .  A
C1213     Br1225   1.920       .  S
C1214      H1217   1.083       .  S
C1216      C1218   1.401       .  A
C1216      C1222   1.407       .  A
C1218      C1219   1.399       .  A
C1218      H1223   1.084       .  S
C1219      C1220   1.412       .  A
C1219     Br1227   1.917       .  S
C1220      C1221   1.404       .  A
C1221      C1222   1.397       .  A
C1221      H1224   1.084       .  S
C1222     Br1228   1.919       .  S
C1229      C1230   1.411       .  A
C1229      C1234   1.404       .  A
C1230      C1231   1.399       .  A
C1230     Br1246   1.919       .  S
C1231      C1232   1.402       .  A
C1231      H1235   1.084       .  S
C1232      C1233   1.407       .  A
C1232      C1236   1.474   1_554  S
C1233      C1234   1.396       .  A
C1233     Br1245   1.920   1_554  S
C1234      H1237   1.083       .  S
C1236      C1238   1.401       .  A
C1236      C1242   1.408       .  A
C1238      C1239   1.397       .  A
C1238      H1243   1.084       .  S
C1239      C1240   1.410       .  A
C1239     Br1247   1.920       .  S
C1240      C1241   1.403       .  A
C1241      C1242   1.398       .  A
C1241      H1244   1.083       .  S
C1242     Br1248   1.919       .  S
C1249      C1250   1.413       .  A
C1249      C1254   1.404       .  A
C1250      C1251   1.399       .  A
C1250     Br1266   1.920       .  S
C1251      C1252   1.401       .  A
C1251      H1255   1.084       .  S
C1252      C1253   1.406       .  A
C1252      C1256   1.474       .  S
C1253      C1254   1.397       .  A
C1253     Br1265   1.919       .  S
C1254      H1257   1.083       .  S
C1256      C1258   1.402       .  A
C1256      C1262   1.407       .  A
C1258      C1259   1.400       .  A
C1258      H1263   1.083       .  S
C1259      C1260   1.412       .  A
C1259     Br1267   1.920       .  S
C1260      C1261   1.404       .  A
C1261      C1262   1.395       .  A
C1261      H1264   1.083       .  S
C1262     Br1268   1.920       .  S
C1269      C1270   1.410       .  A
C1269      C1274   1.403       .  A
C1270      C1271   1.399       .  A
C1270     Br1286   1.919       .  S
C1271      C1272   1.402       .  A
C1271      H1275   1.083       .  S
C1272      C1273   1.406       .  A
C1272      C1276   1.475       .  S
C1273      C1274   1.397       .  A
C1273     Br1285   1.918       .  S
C1274      H1277   1.083       .  S
C1276      C1278   1.402       .  A
C1276      C1282   1.406       .  A
C1278      C1279   1.398       .  A
C1278      H1283   1.084       .  S
C1279      C1280   1.410       .  A
C1279     Br1287   1.919       .  S
C1280      C1281   1.404       .  A
C1281      C1282   1.398       .  A
C1281      H1284   1.084       .  S
C1282     Br1288   1.918       .  S
C1289      C1290   1.410       .  A
C1289      C1294   1.403       .  A
C1290      C1291   1.395       .  A
C1290     Br1306   1.920       .  S
C1291      C1292   1.401       .  A
C1291      H1295   1.084       .  S
C1292      C1293   1.409       .  A
C1292      C1296   1.474       .  S
C1293      C1294   1.398       .  A
C1293     Br1305   1.920       .  S
C1294      H1297   1.083       .  S
C1296      C1298   1.403       .  A
C1296      C1302   1.408       .  A
C1298      C1299   1.396       .  A
C1298      H1303   1.084       .  S
C1299      C1300   1.408       .  A
C1299     Br1307   1.920       .  S
C1300      C1301   1.403       .  A
C1301      C1302   1.396       .  A
C1301      H1304   1.084       .  S
C1302     Br1308   1.919       .  S
C1309      C1310   1.410       .  A
C1309      C1314   1.402       .  A
C1310      C1311   1.396       .  A
C1310     Br1326   1.920       .  S
C1311      C1312   1.400       .  A
C1311      H1315   1.084       .  S
C1312      C1313   1.407       .  A
C1312      C1316   1.470       .  S
C1313      C1314   1.397       .  A
C1313     Br1325   1.919       .  S
C1314      H1317   1.083       .  S
C1316      C1318   1.401       .  A
C1316      C1322   1.406       .  A
C1318      C1319   1.395       .  A
C1318      H1323   1.084       .  S
C1319      C1320   1.408       .  A
C1319     Br1327   1.920       .  S
C1320      C1321   1.403       .  A
C1321      C1322   1.397       .  A
C1321      H1324   1.084       .  S
C1322     Br1328   1.918       .  S
C1329      C1330   1.408       .  A
C1329      C1334   1.402       .  A
C1330      C1331   1.396       .  A
C1330     Br1346   1.919       .  S
C1331      C1332   1.401       .  A
C1331      H1335   1.084       .  S
C1332      C1333   1.408       .  A
C1332      C1336   1.472       .  S
C1333      C1334   1.398       .  A
C1333     Br1345   1.919       .  S
C1334      H1337   1.084   1_455  S
C1336      C1338   1.400       .  A
C1336      C1342   1.406       .  A
C1338      C1339   1.397       .  A
C1338      H1343   1.084       .  S
C1339      C1340   1.412       .  A
C1339     Br1347   1.920       .  S
C1340      C1341   1.404       .  A
C1341      C1342   1.397       .  A
C1341      H1344   1.083       .  S
C1342     Br1348   1.919       .  S
C1349      C1350   1.410       .  A
C1349      C1354   1.404       .  A
C1350      C1351   1.397       .  A
C1350     Br1366   1.920       .  S
C1351      C1352   1.402       .  A
C1351      H1355   1.084       .  S
C1352      C1353   1.410       .  A
C1352      C1356   1.478       .  S
C1353      C1354   1.398       .  A
C1353     Br1365   1.921       .  S
C1354      H1357   1.084       .  S
C1356      C1358   1.403       .  A
C1356      C1362   1.408       .  A
C1358      C1359   1.398       .  A
C1358      H1363   1.084       .  S
C1359      C1360   1.410       .  A
C1359     Br1367   1.919       .  S
C1360      C1361   1.403       .  A
C1361      C1362   1.397       .  A
C1361      H1364   1.083       .  S
C1362     Br1368   1.920       .  S
C1369      C1370   1.414       .  A
C1369      C1374   1.406       .  A
C1370      C1371   1.397       .  A
C1370     Br1386   1.920       .  S
C1371      C1372   1.401       .  A
C1371      H1375   1.084       .  S
C1372      C1373   1.407       .  A
C1372      C1376   1.478       .  S
C1373      C1374   1.399       .  A
C1373     Br1385   1.918       .  S
C1374      H1377   1.083       .  S
C1376      C1378   1.401   1_545  A
C1376      C1382   1.407       .  A
C1378      C1379   1.400       .  A
C1378      H1383   1.084       .  S
C1379      C1380   1.415       .  A
C1379     Br1387   1.919       .  S
C1380      C1381   1.406       .  A
C1381      C1382   1.397   1_565  A
C1381      H1384   1.083       .  S
C1382     Br1388   1.920       .  S
C1389      C1390   1.408       .  A
C1389      C1394   1.402       .  A
C1390      C1391   1.398       .  A
C1390     Br1406   1.919       .  S
C1391      C1392   1.404       .  A
C1391      H1395   1.084       .  S
C1392      C1393   1.409       .  A
C1392      C1396   1.480       .  S
C1393      C1394   1.398       .  A
C1393     Br1405   1.918       .  S
C1394      H1397   1.084       .  S
C1396      C1398   1.402       .  A
C1396      C1402   1.409       .  A
C1398      C1399   1.398       .  A
C1398      H1403   1.084       .  S
C1399      C1400   1.412       .  A
C1399     Br1407   1.919       .  S
C1400      C1401   1.404       .  A
C1401      C1402   1.400       .  A
C1401      H1404   1.083       .  S
C1402     Br1408   1.919       .  S
C1409      C1410   1.413       .  A
C1409      C1414   1.405       .  A
C1410      C1411   1.397       .  A
C1410     Br1426   1.922       .  S
C1411      C1412   1.403       .  A
C1411      H1415   1.084       .  S
C1412      C1413   1.409       .  A
C1412      C1416   1.479       .  S
C1413      C1414   1.397       .  A
C1413     Br1425   1.920       .  S
C1414      H1417   1.083       .  S
C1416      C1418   1.403       .  A
C1416      C1422   1.407       .  A
C1418      C1419   1.400       .  A
C1418      H1423   1.084       .  S
C1419      C1420   1.414       .  A
C1419     Br1427   1.919       .  S
C1420      C1421   1.407       .  A
C1421      C1422   1.394       .  A
C1421      H1424   1.082       .  S
C1422     Br1428   1.921       .  S
C1429      C1430   1.408   1_655  A
C1429      C1434   1.405       .  A
C1430      C1431   1.399       .  A
C1430     Br1446   1.918       .  S
C1431      C1432   1.403       .  A
C1431      H1435   1.084       .  S
C1432      C1433   1.408       .  A
C1432      C1436   1.480       .  S
C1433      C1434   1.400   1_455  A
C1433     Br1445   1.919       .  S
C1434      H1437   1.083       .  S
C1436      C1438   1.402       .  A
C1436      C1442   1.408       .  A
C1438      C1439   1.402       .  A
C1438      H1443   1.083       .  S
C1439      C1440   1.413       .  A
C1439     Br1447   1.919       .  S
C1440      C1441   1.404       .  A
C1441      C1442   1.398       .  A
C1441      H1444   1.083       .  S
C1442     Br1448   1.920       .  S
C1449      C1450   1.410       .  A
C1449      C1454   1.405       .  A
C1450      C1451   1.401       .  A
C1450     Br1466   1.918       .  S
C1451      C1452   1.402       .  A
C1451      H1455   1.083       .  S
C1452      C1453   1.406       .  A
C1452      C1456   1.477       .  S
C1453      C1454   1.398       .  A
C1453     Br1465   1.918       .  S
C1454      H1457   1.083       .  S
C1456      C1458   1.401       .  A
C1456      C1462   1.405       .  A
C1458      C1459   1.401       .  A
C1458      H1463   1.083       .  S
C1459      C1460   1.414       .  A
C1459     Br1467   1.919       .  S
C1460      C1461   1.407       .  A
C1461      C1462   1.399       .  A
C1461      H1464   1.083       .  S
C1462     Br1468   1.918       .  S
C1469      C1470   1.412       .  A
C1469      C1474   1.404       .  A
C1470      C1471   1.397       .  A
C1470     Br1486   1.921       .  S
C1471      C1472   1.401       .  A
C1471      H1475   1.084       .  S
C1472      C1473   1.408       .  A
C1472      C1476   1.476       .  S
C1473      C1474   1.398       .  A
C1473     Br1485   1.918       .  S
C1474      H1477   1.084       .  S
C1476      C1478   1.401       .  A
C1476      C1482   1.407       .  A
C1478      C1479   1.398       .  A
C1478      H1483   1.084       .  S
C1479      C1480   1.411       .  A
C1479     Br1487   1.918       .  S
C1480      C1481   1.405       .  A
C1481      C1482   1.399       .  A
C1481      H1484   1.083       .  S
C1482     Br1488   1.919       .  S
C1489      C1490   1.406       .  A
C1489      C1494   1.401       .  A
C1490      C1491   1.397       .  A
C1490     Br1506   1.918       .  S
C1491      C1492   1.401       .  A
C1491      H1495   1.083       .  S
C1492      C1493   1.407       .  A
C1492      C1496   1.470       .  S
C1493      C1494   1.397       .  A
C1493     Br1505   1.919       .  S
C1494      H1497   1.084       .  S
C1496      C1498   1.399       .  A
C1496      C1502   1.404       .  A
C1498      C1499   1.397       .  A
C1498      H1503   1.084       .  S
C1499      C1500   1.414       .  A
C1499     Br1507   1.920       .  S
C1500      C1501   1.406       .  A
C1501      C1502   1.398       .  A
C1501      H1504   1.083       .  S
C1502     Br1508   1.918       .  S
C1509      C1510   1.411       .  A
C1509      C1514   1.405       .  A
C1510      C1511   1.398       .  A
C1510     Br1526   1.920       .  S
C1511      C1512   1.402       .  A
C1511      H1515   1.084       .  S
C1512      C1513   1.405       .  A
C1512      C1516   1.473       .  S
C1513      C1514   1.396       .  A
C1513     Br1525   1.919       .  S
C1514      H1517   1.083       .  S
C1516      C1518   1.401       .  A
C1516      C1522   1.406       .  A
C1518      C1519   1.398       .  A
C1518      H1523   1.084       .  S
C1519      C1520   1.411       .  A
C1519     Br1527   1.920       .  S
C1520      C1521   1.404       .  A
C1521      C1522   1.398       .  A
C1521      H1524   1.083       .  S
C1522     Br1528   1.919       .  S
C1529      C1530   1.414       .  A
C1529      C1534   1.406       .  A
C1530      C1531   1.398       .  A
C1530     Br1546   1.919       .  S
C1531      C1532   1.401       .  A
C1531      H1535   1.084       .  S
C1532      C1533   1.406       .  A
C1532      C1536   1.475       .  S
C1533      C1534   1.396       .  A
C1533     Br1545   1.920       .  S
C1534      H1537   1.083       .  S
C1536      C1538   1.401       .  A
C1536      C1542   1.407       .  A
C1538      C1539   1.397       .  A
C1538      H1543   1.084       .  S
C1539      C1540   1.412       .  A
C1539     Br1547   1.920       .  S
C1540      C1541   1.404       .  A
C1541      C1542   1.396       .  A
C1541      H1544   1.083       .  S
C1542     Br1548   1.919       .  S
C1549      C1550   1.415       .  A
C1549      C1554   1.405       .  A
C1550      C1551   1.400       .  A
C1550     Br1566   1.920       .  S
C1551      C1552   1.403       .  A
C1551      H1555   1.083       .  S
C1552      C1553   1.410       .  A
C1552      C1556   1.484       .  S
C1553      C1554   1.398       .  A
C1553     Br1565   1.921       .  S
C1554      H1557   1.083       .  S
C1556      C1558   1.404       .  A
C1556      C1562   1.412   1_554  A
C1558      C1559   1.397   1_554  A
C1558      H1563   1.083       .  S
C1559      C1560   1.409       .  A
C1559     Br1567   1.920       .  S
C1560      C1561   1.403       .  A
C1561      C1562   1.399       .  A
C1561      H1564   1.084       .  S
C1562     Br1568   1.920   1_556  S
C1569      C1570   1.411       .  A
C1569      C1574   1.405       .  A
C1570      C1571   1.399       .  A
C1570     Br1586   1.919       .  S
C1571      C1572   1.402       .  A
C1571      H1575   1.084       .  S
C1572      C1573   1.407       .  A
C1572      C1576   1.478       .  S
C1573      C1574   1.400       .  A
C1573     Br1585   1.919       .  S
C1574      H1577   1.083       .  S
C1576      C1578   1.402       .  A
C1576      C1582   1.408       .  A
C1578      C1579   1.398       .  A
C1578      H1583   1.084       .  S
C1579      C1580   1.412       .  A
C1579     Br1587   1.921       .  S
C1580      C1581   1.405       .  A
C1581      C1582   1.399       .  A
C1581      H1584   1.083       .  S
C1582     Br1588   1.918       .  S
C1589      C1590   1.413       .  A
C1589      C1594   1.404       .  A
C1590      C1591   1.400       .  A
C1590     Br1606   1.919       .  S
C1591      C1592   1.401       .  A
C1591      H1595   1.084       .  S
C1592      C1593   1.407       .  A
C1592      C1596   1.476       .  S
C1593      C1594   1.398       .  A
C1593     Br1605   1.920       .  S
C1594      H1597   1.083       .  S
C1596      C1598   1.401       .  A
C1596      C1602   1.407       .  A
C1598      C1599   1.399       .  A
C1598      H1603   1.083       .  S
C1599      C1600   1.412       .  A
C1599     Br1607   1.919       .  S
C1600      C1601   1.406       .  A
C1601      C1602   1.397       .  A
C1601      H1604   1.083       .  S
C1602     Br1608   1.920       .  S
