geometry optimzed in LAMMPS
_audit_creation_date              2020-12-01 
_audit_creation_method            'lammps2cif' 
_symmetry_space_group_name_H-M    'P1' 
_symmetry_Int_Tables_number       1 
_symmetry_cell_setting            triclinic 
loop_ 
_symmetry_equiv_pos_as_xyz 
  x,y,z 
_cell_length_a                    30.59990885 
_cell_length_b                    42.33199611964925 
_cell_length_c                    33.98998840310853 
_cell_angle_alpha                 89.95806958053579 
_cell_angle_beta                  98.72523145707818 
_cell_angle_gamma                 90.1669835441442 
loop_ 
_atom_site_label 
_atom_site_type_symbol 
_atom_site_fract_x 
_atom_site_fract_y 
_atom_site_fract_z 
_atom_site_charge 
C1          C  0.05280744  0.86783077  0.15015871     0.86700
C2          C  0.01889120  0.85754733  0.17700770    -0.53500
C3          C  0.03021331  0.83074670  0.19827854     0.09700
C4          C  0.07422089  0.81624071  0.19110698     0.20600
C5          C  0.09664014  0.87025603  0.17916028    -0.54200
C6          C  0.10774299  0.84329925  0.20033888     0.09800
C7          C  0.05828112  0.83871943  0.12441109    -0.53800
C8          C  0.06942833  0.81191720  0.14571655     0.10300
H9          H  0.99015534  0.87100979  0.18181990     0.14900
H10         H  0.08334747  0.79439327  0.20855579     0.00600
H11         H  0.11678502  0.89153024  0.18291505     0.15200
H12         H  0.05387022  0.83933359  0.09208714     0.14900
C13         C  0.10540549  0.67213571  0.08757652     0.86700
C14         C  0.09945631  0.70140797  0.11289144    -0.53500
C15         C  0.08880810  0.72810203  0.09122571     0.09700
C16         C  0.08497789  0.72351827  0.04593753     0.20600
C17         C  0.06210842  0.66960345  0.05793788    -0.54200
C18         C  0.05155910  0.69642556  0.03632889     0.09800
C19         C  0.14007561  0.68222779  0.06134036    -0.53800
C20         C  0.12926188  0.70894548  0.03976558     0.10300
H21         H  0.10326596  0.70099316  0.14520089     0.14900
H22         H  0.07625545  0.74527731  0.02818598     0.00600
H23         H  0.04194245  0.64834181  0.05406312     0.15200
H24         H  0.16910923  0.66884085  0.05723536     0.14900
C25         C  0.27167669  0.86818514  0.33638761     0.86700
C26         C  0.30598564  0.85799715  0.30996399    -0.53500
C27         C  0.29492652  0.83103966  0.28883771     0.09700
C28         C  0.25075132  0.81639150  0.29568857     0.20600
C29         C  0.22817386  0.87037765  0.30697087    -0.54200
C30         C  0.21728941  0.84332564  0.28592906     0.09800
C31         C  0.26591802  0.83916775  0.36223979    -0.53800
C32         C  0.25505763  0.81224942  0.34110147     0.10300
H33         H  0.33470955  0.87169641  0.30531716     0.14900
H34         H  0.24181525  0.79444664  0.27835168     0.00600
H35         H  0.20807264  0.89157933  0.30282645     0.15200
H36         H  0.27003163  0.83991650  0.39455197     0.14900
C37         C  0.21997438  0.67251505  0.40049125     0.86700
C38         C  0.22465025  0.70196658  0.37501028    -0.53500
C39         C  0.23635939  0.72858172  0.39655275     0.09700
C40         C  0.24228540  0.72376899  0.44193309     0.20600
C41         C  0.26437352  0.67004451  0.42860511    -0.54200
C42         C  0.27588712  0.69677805  0.45013305     0.09800
C43         C  0.18679707  0.68228833  0.42821986    -0.53800
C44         C  0.19859903  0.70892741  0.44972233     0.10300
H45         H  0.21940739  0.70169984  0.34266494     0.14900
H46         H  0.25179393  0.74546275  0.45961631     0.00600
H47         H  0.28447158  0.64881248  0.43169250     0.15200
H48         H  0.15789818  0.66889633  0.43300873     0.14900
C49         C  0.05403411  0.17257064  0.15003305     0.86700
C50         C  0.05911279  0.20173144  0.12423432    -0.53500
C51         C  0.07000698  0.22860081  0.14549892     0.09700
C52         C  0.07505593  0.22427116  0.19089009     0.20600
C53         C  0.09797767  0.17048626  0.17893245    -0.54200
C54         C  0.10887808  0.19752511  0.20003135     0.09800
C55         C  0.02023729  0.18238238  0.17710307    -0.53800
C56         C  0.03129350  0.20930551  0.19824742     0.10300
H57         H  0.05460026  0.20110624  0.09190821     0.14900
H58         H  0.08401220  0.24618203  0.20829659     0.00600
H59         H  0.11826247  0.14936675  0.18283038     0.15200
H60         H  0.99196904  0.16832976  0.18218626     0.14900
C61         C  0.10603650  0.36836273  0.08678096     0.86700
C62         C  0.14068334  0.35836277  0.06058489    -0.53500
C63         C  0.12986778  0.33151225  0.03919138     0.09700
C64         C  0.08559053  0.31679312  0.04550903     0.20600
C65         C  0.06278992  0.37067767  0.05707169    -0.54200
C66         C  0.05218648  0.34372120  0.03576673     0.09800
C67         C  0.09998600  0.33918964  0.11229117    -0.53800
C68         C  0.08937202  0.31239434  0.09080304     0.10300
H69         H  0.16945653  0.37211998  0.05623561     0.14900
H70         H  0.07682751  0.29494313  0.02792019     0.00600
H71         H  0.04261254  0.39184605  0.05299140     0.15200
H72         H  0.10368049  0.33974915  0.14459185     0.14900
C73         C  0.27192679  0.17185370  0.33609059     0.86700
C74         C  0.26683864  0.20083562  0.36210326    -0.53500
C75         C  0.25651254  0.22785902  0.34107580     0.09700
C76         C  0.25204497  0.22387371  0.29566851     0.20600
C77         C  0.22831598  0.17001800  0.30674793    -0.54200
C78         C  0.21801114  0.19720187  0.28584785     0.09800
C79         C  0.30634651  0.18187209  0.30961053    -0.53800
C80         C  0.29584579  0.20895902  0.28867922     0.10300
H81         H  0.27090963  0.19997846  0.39441014     0.14900
H82         H  0.24354819  0.24591890  0.27844729     0.00600
H83         H  0.20776367  0.14895974  0.30250464     0.15200
H84         H  0.33467602  0.16795577  0.30472357     0.14900
C85         C  0.22125614  0.36733587  0.39986536     0.86700
C86         C  0.18749674  0.35748702  0.42707276    -0.53500
C87         C  0.19877659  0.33084702  0.44867233     0.09700
C88         C  0.24264230  0.31611275  0.44151169     0.20600
C89         C  0.26517288  0.36994412  0.42867639    -0.54200
C90         C  0.27624707  0.34316515  0.45019217     0.09800
C91         C  0.22651770  0.33800706  0.37451317    -0.53800
C92         C  0.23764153  0.31139192  0.39617924     0.10300
H93         H  0.15905680  0.37126827  0.43197669     0.14900
H94         H  0.25178834  0.29441120  0.45925672     0.00600
H95         H  0.28536375  0.39120502  0.43212456     0.15200
H96         H  0.22203349  0.33834529  0.34217967     0.14900
O97         O  0.18248072  0.48829114  0.19879150    -0.74200
O98         O  0.21137281  0.55232658  0.27782136    -0.74200
O99         O  0.21193682  0.48802944  0.27756480    -0.74300
O100        O  0.18188392  0.55231701  0.19908553    -0.74300
O101        O  0.11235427  0.55215840  0.21128778    -0.74200
O102        O  0.14229451  0.48745325  0.28944434    -0.74200
O103        O  0.14190975  0.55168721  0.29019958    -0.74200
O104        O  0.11279965  0.48786169  0.21056805    -0.74300
Ni105      Ni  0.19937651  0.52026303  0.23791443     1.25400
Ni106      Ni  0.12485314  0.51976796  0.25082617     1.25400
C107        C  0.14308766  0.47714899  0.19200231     0.88000
C108        C  0.18123249  0.56304263  0.29652345     0.87900
C109        C  0.18181532  0.47662970  0.29588399     0.88000
C110        C  0.14242707  0.56322784  0.19264174     0.88100
O111        O  0.01550916  0.98812467  0.44846749    -0.74200
O112        O  0.04410044  0.05250435  0.02720875    -0.74200
O113        O  0.04426692  0.98826746  0.02746566    -0.74300
O114        O  0.01528226  0.05220535  0.44821423    -0.74300
O115        O  0.27880572  0.05204494  0.45962299    -0.74200
O116        O  0.30792349  0.98820991  0.03923877    -0.74200
O117        O  0.30766130  0.05249194  0.03871164    -0.74200
O118        O  0.27911370  0.98777833  0.46009636    -0.74300
Ni119      Ni  0.03224410  0.02028709  0.48744850     1.25400
Ni120      Ni  0.29088231  0.02011964  0.49984561     1.25400
C121        C  0.30944827  0.97697677  0.44164216     0.88000
C122        C  0.01380474  0.06355468  0.04548142     0.87900
C123        C  0.01404505  0.97726231  0.04597739     0.88000
C124        C  0.30912553  0.06301816  0.44118569     0.88100
C125        C  0.16858276  0.41120192  0.36911280    -0.13100
C126        C  0.21055078  0.39677155  0.37432117     0.09100
C127        C  0.24295280  0.40922766  0.35329472    -0.13100
C128        C  0.23413533  0.43563263  0.32869362    -0.13100
C129        C  0.19234616  0.44999239  0.32390335     0.09100
C130        C  0.15975533  0.43748084  0.34440509    -0.13100
H131        H  0.14159431  0.40204036  0.38272571     0.13000
H132        H  0.27522863  0.39831915  0.35577202     0.13000
H133        H  0.25983902  0.44442037  0.31287069     0.13000
H134        H  0.12695218  0.44765003  0.34081954     0.13000
C135        C  0.33193575  0.10135255  0.39203132    -0.13100
C136        C  0.29892070  0.08914567  0.41229618     0.09100
C137        C  0.25704403  0.10337977  0.40644211    -0.13100
C138        C  0.24871726  0.12960746  0.38144647    -0.13100
C139        C  0.28172427  0.14202134  0.36108008     0.09100
C140        C  0.32359826  0.12745352  0.36691766    -0.13100
H141        H  0.36475549  0.09118704  0.39627364     0.13000
H142        H  0.23094814  0.09473775  0.42189374     0.13000
H143        H  0.21643677  0.14056290  0.37838718     0.13000
H144        H  0.35092214  0.13649040  0.35365968     0.13000
C145        C  0.24453162  0.28169829  0.37740336    -0.13000
C146        C  0.25000254  0.25735197  0.36046746    -0.14600
C147        C  0.08288847  0.41027669  0.13238611    -0.13100
C148        C  0.11598824  0.39798540  0.11215477     0.09100
C149        C  0.15789947  0.41265503  0.11815738    -0.13100
C150        C  0.16615070  0.43879086  0.14321817    -0.13100
C151        C  0.13300564  0.45092665  0.16325948     0.09100
C152        C  0.09113226  0.43653630  0.15733458    -0.13100
H153        H  0.05055714  0.39925212  0.12916191     0.13000
H154        H  0.18527536  0.40373429  0.10499077     0.13000
H155        H  0.19898648  0.44906514  0.14755595     0.13000
H156        H  0.06495015  0.44511949  0.17263209     0.13000
C157        C  0.31499291  0.34139657  0.48010530    -0.13000
C158        C  0.01380810  0.34155708  0.00548682    -0.14600
C159        C  0.15427001  0.32234323  0.00797064    -0.13000
C160        C  0.17521902  0.32206545  0.48067219    -0.14600
C161        C  0.99125286  0.10337733  0.09302193    -0.13100
C162        C  0.02430318  0.09001174  0.07388154     0.09100
C163        C  0.06688080  0.10333509  0.08040481    -0.13100
C164        C  0.07603983  0.12959570  0.10519915    -0.13100
C165        C  0.04319920  0.14292467  0.12484846     0.09100
C166        C  0.00043479  0.12954031  0.11797784    -0.13100
H167        H  0.29120429  0.09405851  0.08804186     0.13000
H168        H  0.09302352  0.09386769  0.06573050     0.13000
H169        H  0.10892463  0.13975515  0.10877029     0.13000
H170        H  0.30652332  0.13960415  0.13035642     0.13000
C171        C  0.17961395  0.19965658  0.25557720    -0.13000
C172        C  0.14752491  0.19973259  0.23008938    -0.14600
C173        C  0.00761275  0.21831727  0.22999569    -0.13000
C174        C  0.32003078  0.21819840  0.25730523    -0.14600
C175        C  0.08222341  0.28271952  0.10964972    -0.13000
C176        C  0.07661399  0.25825585  0.12638100    -0.14600
C177        C  0.16936297  0.62584118  0.37351360    -0.13100
C178        C  0.20925254  0.64295456  0.37507011     0.09100
C179        C  0.24007923  0.63269206  0.35104621    -0.13100
C180        C  0.23152299  0.60631827  0.32639127    -0.13100
C181        C  0.19161613  0.58957472  0.32474716     0.09100
C182        C  0.16075507  0.59954954  0.34868287    -0.13100
H183        H  0.14388102  0.63258746  0.39044038     0.13000
H184        H  0.27086990  0.64540337  0.35113447     0.13000
H185        H  0.25585255  0.59946099  0.30798727     0.13000
H186        H  0.12954748  0.58724613  0.34789056     0.13000
C187        C  0.24900601  0.91013065  0.38213201    -0.13100
C188        C  0.28185254  0.89791440  0.36155435     0.09100
C189        C  0.32372659  0.91266375  0.36720896    -0.13100
C190        C  0.33220990  0.93872450  0.39243186    -0.13100
C191        C  0.29930729  0.95072993  0.41288753     0.09100
C192        C  0.25745738  0.93630709  0.40718124    -0.13100
H193        H  0.21671113  0.89906958  0.37915388     0.13000
H194        H  0.35088361  0.90384678  0.35364329     0.13000
H195        H  0.03166678  0.94906864  0.39652595     0.13000
H196        H  0.23143648  0.94479759  0.42274008     0.13000
C197        C  0.24826271  0.78270049  0.36046887    -0.13000
C198        C  0.24290039  0.75834392  0.37757392    -0.14600
C199        C  0.15594179  0.62643339  0.11672234    -0.13100
C200        C  0.11523467  0.64253727  0.11307669     0.09100
C201        C  0.08306590  0.63140647  0.13532777    -0.13100
C202        C  0.09125347  0.60517239  0.16036719    -0.13100
C203        C  0.13207022  0.58952506  0.16409610     0.09100
C204        C  0.16409675  0.60032334  0.14178328    -0.13100
H205        H  0.18253327  0.63395216  0.10147997     0.13000
H206        H  0.05159071  0.64336756  0.13363788     0.13000
H207        H  0.06595318  0.59758411  0.17741493     0.13000
H208        H  0.19601709  0.58889965  0.14416386     0.13000
C209        C  0.01339397  0.69828804  0.00568900    -0.13000
C210        C  0.31474914  0.69841365  0.48005931    -0.14600
C211        C  0.17507242  0.71811716  0.48152143    -0.13000
C212        C  0.15388830  0.71811659  0.00865511    -0.14600
C213        C  0.00110544  0.91310207  0.12120635    -0.13100
C214        C  0.04229519  0.89757171  0.12500474     0.09100
C215        C  0.07430889  0.90934693  0.10306362    -0.13100
C216        C  0.06568380  0.93573097  0.07839100    -0.13100
C217        C  0.02448487  0.95088808  0.07450297     0.10500
C218        C  0.99244909  0.93938517  0.09637739    -0.13100
H219        H  0.97454512  0.90488595  0.13606278     0.13000
H220        H  0.10607931  0.89780036  0.10473243     0.13000
H221        H  0.09101822  0.94380129  0.06167027     0.13000
H222        H  0.96019742  0.95034522  0.09376589     0.13000
C223        C  0.14653022  0.84128023  0.23030732    -0.13000
C224        C  0.17874956  0.84120906  0.25568988    -0.14600
C225        C  0.31898076  0.82173474  0.25741545    -0.13000
C226        C  0.00653381  0.82158622  0.23006328    -0.14600
C227        C  0.07629161  0.78231288  0.12662944    -0.13000
C228        C  0.08186554  0.75785145  0.10993263    -0.14600
C229        C  0.05280736  0.86783082  0.65015871     0.86700
C230        C  0.01889106  0.85754746  0.67700776    -0.53500
C231        C  0.03021321  0.83074679  0.69827855     0.09700
C232        C  0.07422081  0.81624074  0.69110699     0.20600
C233        C  0.09664008  0.87025604  0.67916027    -0.54200
C234        C  0.10774292  0.84329927  0.70033888     0.09800
C235        C  0.05828102  0.83871949  0.62441100    -0.53800
C236        C  0.06942821  0.81191726  0.64571652     0.10300
H237        H  0.99015516  0.87100996  0.68181999     0.14900
H238        H  0.08334739  0.79439328  0.70855582     0.00600
H239        H  0.11678497  0.89153022  0.68291504     0.15200
H240        H  0.05387006  0.83933364  0.59208700     0.14900
C241        C  0.10540545  0.67213574  0.58757661     0.86700
C242        C  0.09945624  0.70140802  0.61289138    -0.53500
C243        C  0.08880804  0.72810208  0.59122571     0.09700
C244        C  0.08497789  0.72351830  0.54593758     0.20600
C245        C  0.06210841  0.66960343  0.55793795    -0.54200
C246        C  0.05155911  0.69642555  0.53632893     0.09800
C247        C  0.14007552  0.68222785  0.56134050    -0.53800
C248        C  0.12926187  0.70894552  0.53976568     0.10300
H249        H  0.10326581  0.70099321  0.64520075     0.14900
H250        H  0.07625548  0.74527733  0.52818603     0.00600
H251        H  0.04194245  0.64834178  0.55406319     0.15200
H252        H  0.16910901  0.66884085  0.55723545     0.14900
C253        C  0.27167653  0.86818515  0.83638769     0.86700
C254        C  0.30598543  0.85799715  0.80996409    -0.53500
C255        C  0.29492633  0.83103971  0.78883772     0.09700
C256        C  0.25075112  0.81639155  0.79568855     0.20600
C257        C  0.22817372  0.87037772  0.80697098    -0.54200
C258        C  0.21728924  0.84332573  0.78592912     0.09800
C259        C  0.26591785  0.83916773  0.86223971    -0.53800
C260        C  0.25505743  0.81224942  0.84110141     0.10300
H261        H  0.33470931  0.87169640  0.80531728     0.14900
H262        H  0.24181503  0.79444671  0.77835162     0.00600
H263        H  0.20807253  0.89157942  0.80282660     0.15200
H264        H  0.27003147  0.83991643  0.89455183     0.14900
C265        C  0.21997442  0.67251499  0.90049119     0.86700
C266        C  0.22465028  0.70196651  0.87501020    -0.53500
C267        C  0.23635940  0.72858166  0.89655264     0.09700
C268        C  0.24228541  0.72376894  0.94193297     0.20600
C269        C  0.26437361  0.67004444  0.92860504    -0.54200
C270        C  0.27588717  0.69677801  0.95013296     0.09800
C271        C  0.18679712  0.68228829  0.92821980    -0.53800
C272        C  0.19859907  0.70892738  0.94972225     0.10300
H273        H  0.21940742  0.70169976  0.84266485     0.14900
H274        H  0.25179392  0.74546271  0.95961616     0.00600
H275        H  0.28447170  0.64881240  0.93169248     0.15200
H276        H  0.15789824  0.66889628  0.93300869     0.14900
C277        C  0.05403413  0.17257058  0.65003305     0.86700
C278        C  0.05911272  0.20173136  0.62423430    -0.53500
C279        C  0.07000690  0.22860074  0.64549886     0.09700
C280        C  0.07505591  0.22427110  0.69089002     0.20600
C281        C  0.09797764  0.17048632  0.67893241    -0.54200
C282        C  0.10887808  0.19752513  0.70003130     0.09800
C283        C  0.02023734  0.18238228  0.67710312    -0.53800
C284        C  0.03129352  0.20930543  0.69824742     0.10300
H285        H  0.05460010  0.20110614  0.59190820     0.14900
H286        H  0.08401219  0.24618197  0.70829648     0.00600
H287        H  0.11826242  0.14936685  0.68283037     0.15200
H288        H  0.99196911  0.16832964  0.68218636     0.14900
C289        C  0.10603655  0.36836266  0.58678099     0.86700
C290        C  0.14068335  0.35836277  0.56058488    -0.53500
C291        C  0.12986773  0.33151226  0.53919135     0.09700
C292        C  0.08559045  0.31679309  0.54550894     0.20600
C293        C  0.06279002  0.37067755  0.55707177    -0.54200
C294        C  0.05218645  0.34372118  0.53576672     0.09800
C295        C  0.09998599  0.33918957  0.61229114    -0.53800
C296        C  0.08937198  0.31239428  0.59080296     0.10300
H297        H  0.16945658  0.37211995  0.55623564     0.14900
H298        H  0.07682740  0.29494312  0.52792005     0.00600
H299        H  0.04261270  0.39184589  0.55299157     0.15200
H300        H  0.10368054  0.33974904  0.64459183     0.14900
C301        C  0.27192675  0.17185367  0.83609052     0.86700
C302        C  0.26683865  0.20083558  0.86210309    -0.53500
C303        C  0.25651258  0.22785900  0.84107573     0.09700
C304        C  0.25204499  0.22387363  0.79566848     0.20600
C305        C  0.22831603  0.17001809  0.80674793    -0.54200
C306        C  0.21801111  0.19720189  0.78584783     0.09800
C307        C  0.30634635  0.18187203  0.80961044    -0.53800
C308        C  0.29584575  0.20895895  0.78867914     0.10300
H309        H  0.27090966  0.19997842  0.89440991     0.14900
H310        H  0.24354823  0.24591878  0.77844729     0.00600
H311        H  0.20776375  0.14895991  0.80250467     0.15200
H312        H  0.33467575  0.16795570  0.80472345     0.14900
C313        C  0.22125621  0.36733589  0.89986538     0.86700
C314        C  0.18749683  0.35748704  0.92707281    -0.53500
C315        C  0.19877669  0.33084704  0.94867238     0.09700
C316        C  0.24264240  0.31611280  0.94151171     0.20600
C317        C  0.26517293  0.36994412  0.92867640    -0.54200
C318        C  0.27624715  0.34316518  0.95019218     0.09800
C319        C  0.22651779  0.33800708  0.87451319    -0.53800
C320        C  0.23764162  0.31139193  0.89617926     0.10300
H321        H  0.15905688  0.37126827  0.93197674     0.14900
H322        H  0.25178845  0.29441127  0.95925675     0.00600
H323        H  0.28536376  0.39120501  0.93212456     0.15200
H324        H  0.22203355  0.33834530  0.84217968     0.14900
O325        O  0.18248060  0.48829114  0.69879145    -0.74200
O326        O  0.21137271  0.55232652  0.77782136    -0.74200
O327        O  0.21193665  0.48802938  0.77756473    -0.74300
O328        O  0.18188384  0.55231699  0.69908555    -0.74300
O329        O  0.11235418  0.55215838  0.71128777    -0.74200
O330        O  0.14229436  0.48745323  0.78944433    -0.74200
O331        O  0.14190963  0.55168716  0.79019955    -0.74200
O332        O  0.11279955  0.48786164  0.71056803    -0.74300
Ni333      Ni  0.19937639  0.52026298  0.73791441     1.25400
Ni334      Ni  0.12485302  0.51976792  0.75082615     1.25400
C335        C  0.14308756  0.47714896  0.69200227     0.88000
C336        C  0.18123237  0.56304257  0.79652343     0.87900
C337        C  0.18181517  0.47662966  0.79588395     0.88000
C338        C  0.14242700  0.56322783  0.69264176     0.88100
O339        O  0.01550915  0.98812464  0.94846747    -0.74200
O340        O  0.04410030  0.05250437  0.52720874    -0.74200
O341        O  0.04426683  0.98826748  0.52746571    -0.74300
O342        O  0.01528236  0.05220534  0.94821424    -0.74300
O343        O  0.27880581  0.05204503  0.95962305    -0.74200
O344        O  0.30792352  0.98820989  0.53923877    -0.74200
O345        O  0.30766125  0.05249192  0.53871158    -0.74200
O346        O  0.27911369  0.98777842  0.96009637    -0.74300
Ni347      Ni  0.03224418  0.02028706  0.98744848     1.25400
Ni348      Ni  0.29088234  0.02011970  0.99984564     1.25400
C349        C  0.30944828  0.97697682  0.94164222     0.88000
C350        C  0.01380462  0.06355466  0.54548145     0.87900
C351        C  0.01404494  0.97726233  0.54597743     0.88000
C352        C  0.30912565  0.06301824  0.94118578     0.88100
C353        C  0.16858264  0.41120185  0.86911293    -0.13100
C354        C  0.21055075  0.39677156  0.87432120     0.09100
C355        C  0.24295280  0.40922768  0.85329464    -0.13100
C356        C  0.23413527  0.43563266  0.82869352    -0.13100
C357        C  0.19234609  0.44999236  0.82390332     0.09100
C358        C  0.15975534  0.43748076  0.84440514    -0.13100
H359        H  0.14159410  0.40204033  0.88272589     0.13000
H360        H  0.27522864  0.39831917  0.85577193     0.13000
H361        H  0.25983894  0.44442044  0.81287054     0.13000
H362        H  0.12695228  0.44764996  0.84081955     0.13000
C363        C  0.33193577  0.10135272  0.89203142    -0.13100
C364        C  0.29892076  0.08914576  0.91229628     0.09100
C365        C  0.25704404  0.10337975  0.90644217    -0.13100
C366        C  0.24871729  0.12960740  0.88144645    -0.13100
C367        C  0.28172430  0.14202132  0.86108001     0.09100
C368        C  0.32359837  0.12745363  0.86691765    -0.13100
H369        H  0.36475548  0.09118727  0.89627384     0.13000
H370        H  0.23094811  0.09473771  0.92189381     0.13000
H371        H  0.21643680  0.14056281  0.87838709     0.13000
H372        H  0.35092233  0.13649054  0.85365968     0.13000
C373        C  0.24453168  0.28169828  0.87740337    -0.13000
C374        C  0.25000258  0.25735196  0.86046743    -0.14600
C375        C  0.08288852  0.41027649  0.63238632    -0.13100
C376        C  0.11598825  0.39798533  0.61215483     0.09100
C377        C  0.15789937  0.41265509  0.61815725    -0.13100
C378        C  0.16615053  0.43879092  0.64321799    -0.13100
C379        C  0.13300556  0.45092662  0.66325945     0.09100
C380        C  0.09113225  0.43653615  0.65733475    -0.13100
H381        H  0.05055726  0.39925181  0.62916223     0.13000
H382        H  0.18527525  0.40373448  0.60499052     0.13000
H383        H  0.19898622  0.44906530  0.64755559     0.13000
H384        H  0.06495019  0.44511927  0.67263237     0.13000
C385        C  0.31499298  0.34139662  0.98010532    -0.13000
C386        C  0.01380802  0.34155715  0.50548683    -0.14600
C387        C  0.15426993  0.32234323  0.50797061    -0.13000
C388        C  0.17521912  0.32206546  0.98067224    -0.14600
C389        C  0.99125282  0.10337732  0.59302199    -0.13100
C390        C  0.02430315  0.09001167  0.57388162     0.09100
C391        C  0.06688077  0.10333494  0.58040492    -0.13100
C392        C  0.07603975  0.12959553  0.60519921    -0.13100
C393        C  0.04319919  0.14292460  0.62484852     0.09100
C394        C  0.00043468  0.12954036  0.61797792    -0.13100
H395        H  0.29120422  0.09405831  0.58804198     0.13000
H396        H  0.09302354  0.09386754  0.56573068     0.13000
H397        H  0.10892454  0.13975491  0.60877033     0.13000
H398        H  0.30652334  0.13960401  0.63035675     0.13000
C399        C  0.17961388  0.19965660  0.75557722    -0.13000
C400        C  0.14752487  0.19973259  0.73008937    -0.14600
C401        C  0.00761278  0.21831723  0.72999569    -0.13000
C402        C  0.32003080  0.21819833  0.75730519    -0.14600
C403        C  0.08222337  0.28271944  0.60964961    -0.13000
C404        C  0.07661391  0.25825578  0.62638089    -0.14600
C405        C  0.16936303  0.62584114  0.87351354    -0.13100
C406        C  0.20925253  0.64295450  0.87507006     0.09100
C407        C  0.24007913  0.63269198  0.85104612    -0.13100
C408        C  0.23152285  0.60631821  0.82639117    -0.13100
C409        C  0.19161605  0.58957469  0.82474709     0.09100
C410        C  0.16075515  0.59954958  0.84868281    -0.13100
H411        H  0.14388107  0.63258734  0.89044029     0.13000
H412        H  0.27086979  0.64540327  0.85113434     0.13000
H413        H  0.25585237  0.59946093  0.80798715     0.13000
H414        H  0.12954762  0.58724625  0.84789053     0.13000
C415        C  0.24900591  0.91013073  0.88213208    -0.13100
C416        C  0.28185247  0.89791439  0.86155449     0.09100
C417        C  0.32372660  0.91266363  0.86720915    -0.13100
C418        C  0.33220986  0.93872438  0.89243206    -0.13100
C419        C  0.29930725  0.95072994  0.91288763     0.09100
C420        C  0.25745728  0.93630720  0.90718128    -0.13100
H421        H  0.21671100  0.89906973  0.87915389     0.13000
H422        H  0.35088368  0.90384659  0.85364356     0.13000
H423        H  0.03166713  0.94906811  0.89652659     0.13000
H424        H  0.23143635  0.94479777  0.92274003     0.13000
C425        C  0.24826254  0.78270047  0.86046878    -0.13000
C426        C  0.24290029  0.75834387  0.87757377    -0.14600
C427        C  0.15594202  0.62643373  0.61672286    -0.13100
C428        C  0.11523469  0.64253734  0.61307683     0.09100
C429        C  0.08306570  0.63140631  0.63532755    -0.13100
C430        C  0.09125325  0.60517219  0.66036690    -0.13100
C431        C  0.13207018  0.58952509  0.66409616     0.09100
C432        C  0.16409689  0.60032367  0.64178376    -0.13100
H433        H  0.18253373  0.63395275  0.60148092     0.13000
H434        H  0.05159036  0.64336725  0.63363742     0.13000
H435        H  0.06595280  0.59758369  0.67741433     0.13000
H436        H  0.19601737  0.58890020  0.64416465     0.13000
C437        C  0.01339400  0.69828803  0.50568901    -0.13000
C438        C  0.31474911  0.69841364  0.98005930    -0.14600
C439        C  0.17507246  0.71811713  0.98152136    -0.13000
C440        C  0.15388830  0.71811659  0.50865520    -0.14600
C441        C  0.00110536  0.91310204  0.62120634    -0.13100
C442        C  0.04229507  0.89757178  0.62500480     0.09100
C443        C  0.07430871  0.90934713  0.60306374    -0.13100
C444        C  0.06568382  0.93573117  0.57839110    -0.13100
C445        C  0.02448484  0.95088814  0.57450303     0.10500
C446        C  0.99244910  0.93938511  0.59637739    -0.13100
H447        H  0.97454495  0.90488591  0.63606263     0.13000
H448        H  0.10607907  0.89780060  0.60473265     0.13000
H449        H  0.09101838  0.94380152  0.56167046     0.13000
H450        H  0.96019743  0.95034505  0.59376583     0.13000
C451        C  0.14653010  0.84128030  0.73030735    -0.13000
C452        C  0.17874941  0.84120918  0.75568995    -0.14600
C453        C  0.31898062  0.82173479  0.75741548    -0.13000
C454        C  0.00653366  0.82158626  0.73006323    -0.14600
C455        C  0.07629144  0.78231293  0.62662942    -0.13000
C456        C  0.08186541  0.75785150  0.60993263    -0.14600
C457        C  0.38614085  0.86783078  0.15015869     0.86700
C458        C  0.35222465  0.85754736  0.17700768    -0.53500
C459        C  0.36354666  0.83074673  0.19827852     0.09700
C460        C  0.40755419  0.81624070  0.19110696     0.20600
C461        C  0.42997346  0.87025594  0.17916024    -0.54200
C462        C  0.44107633  0.84329920  0.20033887     0.09800
C463        C  0.39161447  0.83871945  0.12441108    -0.53800
C464        C  0.40276162  0.81191720  0.14571651     0.10300
H465        H  0.32348887  0.87100986  0.18181989     0.14900
H466        H  0.41668073  0.79439326  0.20855576     0.00600
H467        H  0.45011833  0.89153009  0.18291502     0.15200
H468        H  0.38720358  0.83933364  0.09208715     0.14900
C469        C  0.43873870  0.67213563  0.08757649     0.86700
C470        C  0.43278959  0.70140791  0.11289141    -0.53500
C471        C  0.42214141  0.72810198  0.09122568     0.09700
C472        C  0.41831118  0.72351821  0.04593750     0.20600
C473        C  0.39544166  0.66960344  0.05793787    -0.54200
C474        C  0.38489235  0.69642554  0.03632887     0.09800
C475        C  0.47340878  0.68222769  0.06134032    -0.53800
C476        C  0.46259513  0.70894538  0.03976555     0.10300
H477        H  0.43659922  0.70099309  0.14520086     0.14900
H478        H  0.40958879  0.74527724  0.02818595     0.00600
H479        H  0.37527565  0.64834185  0.05406314     0.15200
H480        H  0.50244236  0.66884075  0.05723531     0.14900
C481        C  0.60501005  0.86818514  0.33638759     0.86700
C482        C  0.63931897  0.85799716  0.30996397    -0.53500
C483        C  0.62825984  0.83103968  0.28883768     0.09700
C484        C  0.58408463  0.81639152  0.29568854     0.20600
C485        C  0.56150723  0.87037764  0.30697089    -0.54200
C486        C  0.55062273  0.84332565  0.28592906     0.09800
C487        C  0.59925137  0.83916775  0.36223976    -0.53800
C488        C  0.58839096  0.81224943  0.34110143     0.10300
H489        H  0.66804292  0.87169638  0.30531716     0.14900
H490        H  0.57514855  0.79444667  0.27835163     0.00600
H491        H  0.54140602  0.89157930  0.30282653     0.15200
H492        H  0.60336498  0.83991649  0.39455194     0.14900
C493        C  0.55330769  0.67251504  0.40049124     0.86700
C494        C  0.55798356  0.70196657  0.37501026    -0.53500
C495        C  0.56969272  0.72858172  0.39655272     0.09700
C496        C  0.57561875  0.72376898  0.44193306     0.20600
C497        C  0.59770688  0.67004450  0.42860507    -0.54200
C498        C  0.60922048  0.69677804  0.45013301     0.09800
C499        C  0.52013043  0.68228834  0.42821986    -0.53800
C500        C  0.53193240  0.70892741  0.44972232     0.10300
H501        H  0.55274071  0.70169983  0.34266491     0.14900
H502        H  0.58512727  0.74546274  0.45961627     0.00600
H503        H  0.61780496  0.64881247  0.43169245     0.15200
H504        H  0.49123153  0.66889635  0.43300870     0.14900
C505        C  0.38736741  0.17257060  0.15003310     0.86700
C506        C  0.39244601  0.20173141  0.12423434    -0.53500
C507        C  0.40334019  0.22860078  0.14549892     0.09700
C508        C  0.40838915  0.22427117  0.19089009     0.20600
C509        C  0.43131101  0.17048624  0.17893250    -0.54200
C510        C  0.44221136  0.19752513  0.20003136     0.09800
C511        C  0.35357058  0.18238235  0.17710312    -0.53800
C512        C  0.36462676  0.20930549  0.19824744     0.10300
H513        H  0.38793349  0.20110619  0.09190823     0.14900
H514        H  0.41734540  0.24618206  0.20829655     0.00600
H515        H  0.45159586  0.14936671  0.18283046     0.15200
H516        H  0.32530236  0.16832970  0.18218631     0.14900
C517        C  0.43936987  0.36836268  0.08678106     0.86700
C518        C  0.47401674  0.35836275  0.06058496    -0.53500
C519        C  0.46320113  0.33151223  0.03919145     0.09700
C520        C  0.41892385  0.31679308  0.04550909     0.20600
C521        C  0.39612325  0.37067763  0.05707183    -0.54200
C522        C  0.38551981  0.34372118  0.03576685     0.09800
C523        C  0.43331937  0.33918957  0.11229125    -0.53800
C524        C  0.42270537  0.31239428  0.09080309     0.10300
H525        H  0.50278998  0.37211995  0.05623569     0.14900
H526        H  0.41016082  0.29494311  0.02792023     0.00600
H527        H  0.37594585  0.39184602  0.05299159     0.15200
H528        H  0.43701388  0.33974905  0.14459194     0.14900
C529        C  0.60526015  0.17185367  0.33609048     0.86700
C530        C  0.60017202  0.20083557  0.36210317    -0.53500
C531        C  0.58984593  0.22785900  0.34107572     0.09700
C532        C  0.58537840  0.22387372  0.29566842     0.20600
C533        C  0.56164939  0.17001797  0.30674778    -0.54200
C534        C  0.55134456  0.19720187  0.28584773     0.09800
C535        C  0.63967983  0.18187212  0.30961047    -0.53800
C536        C  0.62917920  0.20895904  0.28867916     0.10300
H537        H  0.60424295  0.19997839  0.39441005     0.14900
H538        H  0.57688164  0.24591892  0.27844721     0.00600
H539        H  0.54109704  0.14895972  0.30250449     0.15200
H540        H  0.66800928  0.16795582  0.30472352     0.14900
C541        C  0.55458947  0.36733584  0.39986530     0.86700
C542        C  0.52083014  0.35748703  0.42707279    -0.53500
C543        C  0.53211002  0.33084705  0.44867239     0.09700
C544        C  0.57597570  0.31611275  0.44151167     0.20600
C545        C  0.59850627  0.36994410  0.42867624    -0.54200
C546        C  0.60958049  0.34316515  0.45019204     0.09800
C547        C  0.55985097  0.33800701  0.37451314    -0.53800
C548        C  0.57097483  0.31139188  0.39617922     0.10300
H549        H  0.49239021  0.37126828  0.43197674     0.14900
H550        H  0.58512177  0.29441121  0.45925674     0.00600
H551        H  0.61869714  0.39120498  0.43212434     0.15200
H552        H  0.55536671  0.33834521  0.34217963     0.14900
O553        O  0.51581393  0.48829110  0.19879154    -0.74200
O554        O  0.54470612  0.55232659  0.27782135    -0.74200
O555        O  0.54527014  0.48802943  0.27756483    -0.74300
O556        O  0.51521713  0.55231697  0.19908553    -0.74300
O557        O  0.44568753  0.55215840  0.21128791    -0.74200
O558        O  0.47562786  0.48745325  0.28944443    -0.74200
O559        O  0.47524308  0.55168717  0.29019965    -0.74200
O560        O  0.44613289  0.48786166  0.21056816    -0.74300
Ni561      Ni  0.53270978  0.52026300  0.23791444     1.25400
Ni562      Ni  0.45818645  0.51976794  0.25082627     1.25400
C563        C  0.47642086  0.47714895  0.19200239     0.88000
C564        C  0.51456580  0.56304261  0.29652348     0.87900
C565        C  0.51514866  0.47662969  0.29588403     0.88000
C566        C  0.47576029  0.56322781  0.19264180     0.88100
O567        O  0.34884250  0.98812461  0.44846750    -0.74200
O568        O  0.37743373  0.05250440  0.02720876    -0.74200
O569        O  0.37760028  0.98826753  0.02746578    -0.74300
O570        O  0.34861557  0.05220530  0.44821417    -0.74300
O571        O  0.61213907  0.05204497  0.45962297    -0.74200
O572        O  0.64125682  0.98820991  0.03923876    -0.74200
O573        O  0.64099470  0.05249194  0.03871164    -0.74200
O574        O  0.61244703  0.98777837  0.46009634    -0.74300
Ni575      Ni  0.36557746  0.02028707  0.48744846     1.25400
Ni576      Ni  0.62421563  0.02011968  0.49984560     1.25400
C577        C  0.64278161  0.97697680  0.44164216     0.88000
C578        C  0.34713803  0.06355468  0.04548147     0.87900
C579        C  0.34737840  0.97726234  0.04597747     0.88000
C580        C  0.64245888  0.06301818  0.44118568     0.88100
C581        C  0.50191608  0.41120191  0.36911284    -0.13100
C582        C  0.54388407  0.39677149  0.37432109     0.09100
C583        C  0.57628608  0.40922752  0.35329450    -0.13100
C584        C  0.56746868  0.43563255  0.32869341    -0.13100
C585        C  0.52567950  0.44999236  0.32390334     0.09100
C586        C  0.49308865  0.43748085  0.34440515    -0.13100
H587        H  0.47492767  0.40204039  0.38272584     0.13000
H588        H  0.60856183  0.39831891  0.35577175     0.13000
H589        H  0.59317237  0.44442026  0.31287036     0.13000
H590        H  0.46028553  0.44765010  0.34081969     0.13000
C591        C  0.66526911  0.10135253  0.39203126    -0.13100
C592        C  0.63225406  0.08914567  0.41229611     0.09100
C593        C  0.59037740  0.10337978  0.40644196    -0.13100
C594        C  0.58205050  0.12960747  0.38144633    -0.13100
C595        C  0.61505761  0.14202131  0.36107994     0.09100
C596        C  0.65693165  0.12745347  0.36691752    -0.13100
H597        H  0.69808884  0.09118701  0.39627364     0.13000
H598        H  0.56428158  0.09473774  0.42189361     0.13000
H599        H  0.54976994  0.14056291  0.37838705     0.13000
H600        H  0.68425556  0.13649033  0.35365951     0.13000
C601        C  0.57786495  0.28169824  0.37740333    -0.13000
C602        C  0.58333589  0.25735193  0.36046741    -0.14600
C603        C  0.41622188  0.41027645  0.13238645    -0.13100
C604        C  0.44932151  0.39798535  0.11215488     0.09100
C605        C  0.49123250  0.41265525  0.11815719    -0.13100
C606        C  0.49948377  0.43879108  0.14321794    -0.13100
C607        C  0.46633885  0.45092663  0.16325954     0.09100
C608        C  0.42446562  0.43653606  0.15733489    -0.13100
H609        H  0.38389068  0.39925174  0.12916246     0.13000
H610        H  0.51860827  0.40373474  0.10499034     0.13000
H611        H  0.53231946  0.44906553  0.14755540     0.13000
H612        H  0.39828360  0.44511907  0.17263260     0.13000
C613        C  0.64832636  0.34139659  0.48010513    -0.13000
C614        C  0.34714142  0.34155709  0.00548695    -0.14600
C615        C  0.48760333  0.32234322  0.00797068    -0.13000
C616        C  0.50855246  0.32206550  0.48067228    -0.14600
C617        C  0.32458623  0.10337739  0.09302190    -0.13100
C618        C  0.35763649  0.09001170  0.07388164     0.09100
C619        C  0.40021405  0.10333497  0.08040511    -0.13100
C620        C  0.40937316  0.12959554  0.10519941    -0.13100
C621        C  0.37653251  0.14292463  0.12484855     0.09100
C622        C  0.33376806  0.12954038  0.11797779    -0.13100
H623        H  0.62453788  0.09405802  0.08804252     0.13000
H624        H  0.42635676  0.09386753  0.06573094     0.13000
H625        H  0.44225804  0.13975485  0.10877060     0.13000
H626        H  0.63985690  0.13960371  0.13035728     0.13000
C627        C  0.51294732  0.19965663  0.25557714    -0.13000
C628        C  0.48085821  0.19973265  0.23008937    -0.14600
C629        C  0.34094597  0.21831728  0.22999569    -0.13000
C630        C  0.65336426  0.21819841  0.25730521    -0.14600
C631        C  0.41555669  0.28271947  0.10964974    -0.13000
C632        C  0.40994721  0.25825581  0.12638098    -0.14600
C633        C  0.50269651  0.62584100  0.37351376    -0.13100
C634        C  0.54258585  0.64295454  0.37507011     0.09100
C635        C  0.57341241  0.63269217  0.35104604    -0.13100
C636        C  0.56485613  0.60631837  0.32639109    -0.13100
C637        C  0.52494945  0.58957471  0.32474718     0.09100
C638        C  0.49408867  0.59954943  0.34868308    -0.13100
H639        H  0.47721467  0.63258706  0.39044068     0.13000
H640        H  0.60420300  0.64540358  0.35113415     0.13000
H641        H  0.58918554  0.59946118  0.30798692     0.13000
H642        H  0.46288125  0.58724597  0.34789099     0.13000
C643        C  0.58233941  0.91013048  0.38213224    -0.13100
C644        C  0.61518586  0.89791442  0.36155435     0.09100
C645        C  0.65705979  0.91266399  0.36720870    -0.13100
C646        C  0.66554319  0.93872474  0.39243160    -0.13100
C647        C  0.63264066  0.95072996  0.41288753     0.09100
C648        C  0.59079083  0.93630693  0.40718148    -0.13100
H649        H  0.55004460  0.89906928  0.37915427     0.13000
H650        H  0.68421667  0.90384718  0.35364278     0.13000
H651        H  0.36500067  0.94906789  0.39652704     0.13000
H652        H  0.56477005  0.94479730  0.42274055     0.13000
C653        C  0.58159604  0.78270049  0.36046883    -0.13000
C654        C  0.57623372  0.75834392  0.37757388    -0.14600
C655        C  0.48927491  0.62643321  0.11672223    -0.13100
C656        C  0.44856779  0.64253718  0.11307666     0.09100
C657        C  0.41639897  0.63140648  0.13532780    -0.13100
C658        C  0.42458666  0.60517240  0.16036724    -0.13100
C659        C  0.46540344  0.58952501  0.16409613     0.09100
C660        C  0.49742996  0.60032319  0.14178324    -0.13100
H661        H  0.51586631  0.63395192  0.10147974     0.13000
H662        H  0.38492376  0.64336762  0.13363795     0.13000
H663        H  0.39928646  0.59758411  0.17741505     0.13000
H664        H  0.52935031  0.58889946  0.14416377     0.13000
C665        C  0.34672722  0.69828803  0.00568898    -0.13000
C666        C  0.64808248  0.69841365  0.48005930    -0.14600
C667        C  0.50840579  0.71811717  0.48152141    -0.13000
C668        C  0.48722157  0.71811650  0.00865513    -0.14600
C669        C  0.33443889  0.91310204  0.12120628    -0.13100
C670        C  0.37562860  0.89757175  0.12500475     0.09100
C671        C  0.40764222  0.90934705  0.10306371    -0.13100
C672        C  0.39901723  0.93573110  0.07839114    -0.13100
C673        C  0.35781827  0.95088814  0.07450305     0.10500
C674        C  0.32578248  0.93938514  0.09637737    -0.13100
H675        H  0.30787856  0.90488587  0.13606261     0.13000
H676        H  0.43941261  0.89780054  0.10473255     0.13000
H677        H  0.42435173  0.94380144  0.06167053     0.13000
H678        H  0.29353076  0.95034509  0.09376584     0.13000
C679        C  0.47986352  0.84128020  0.23030734    -0.13000
C680        C  0.51208284  0.84120907  0.25568993    -0.14600
C681        C  0.65231410  0.82173474  0.25741545    -0.13000
C682        C  0.33986712  0.82158629  0.23006325    -0.14600
C683        C  0.40962485  0.78231286  0.12662938    -0.13000
C684        C  0.41519881  0.75785142  0.10993257    -0.14600
C685        C  0.38614083  0.86783081  0.65015881     0.86700
C686        C  0.35222453  0.85754749  0.67700786    -0.53500
C687        C  0.36354663  0.83074681  0.69827864     0.09700
C688        C  0.40755418  0.81624071  0.69110702     0.20600
C689        C  0.42997355  0.87025593  0.67916030    -0.54200
C690        C  0.44107637  0.84329917  0.70033890     0.09800
C691        C  0.39161439  0.83871946  0.62441117    -0.53800
C692        C  0.40276153  0.81191721  0.64571658     0.10300
H693        H  0.32348867  0.87101002  0.68182012     0.14900
H694        H  0.41668072  0.79439325  0.70855580     0.00600
H695        H  0.45011846  0.89153008  0.68291507     0.15200
H696        H  0.38720342  0.83933364  0.59208723     0.14900
C697        C  0.43873877  0.67213572  0.58757650     0.86700
C698        C  0.43278955  0.70140798  0.61289140    -0.53500
C699        C  0.42214137  0.72810205  0.59122569     0.09700
C700        C  0.41831123  0.72351830  0.54593751     0.20600
C701        C  0.39544174  0.66960343  0.55793781    -0.54200
C702        C  0.38489244  0.69642556  0.53632883     0.09800
C703        C  0.47340884  0.68222785  0.56134040    -0.53800
C704        C  0.46259521  0.70894553  0.53976561     0.10300
H705        H  0.43659911  0.70099314  0.64520084     0.14900
H706        H  0.40958883  0.74527735  0.52818596     0.00600
H707        H  0.37527574  0.64834178  0.55406304     0.15200
H708        H  0.50244235  0.66884087  0.55723539     0.14900
C709        C  0.60501001  0.86818513  0.83638764     0.86700
C710        C  0.63931888  0.85799712  0.80996402    -0.53500
C711        C  0.62825977  0.83103965  0.78883771     0.09700
C712        C  0.58408461  0.81639146  0.79568859     0.20600
C713        C  0.56150714  0.87037766  0.80697098    -0.54200
C714        C  0.55062270  0.84332563  0.78592915     0.09800
C715        C  0.59925141  0.83916772  0.86223972    -0.53800
C716        C  0.58839097  0.81224938  0.84110146     0.10300
H717        H  0.66804273  0.87169638  0.80531717     0.14900
H718        H  0.57514853  0.79444658  0.77835167     0.00600
H719        H  0.54140589  0.89157935  0.80282660     0.15200
H720        H  0.60336503  0.83991646  0.89455184     0.14900
C721        C  0.55330775  0.67251501  0.90049124     0.86700
C722        C  0.55798358  0.70196653  0.87501016    -0.53500
C723        C  0.56969268  0.72858168  0.89655270     0.09700
C724        C  0.57561867  0.72376895  0.94193307     0.20600
C725        C  0.59770692  0.67004445  0.92860515    -0.54200
C726        C  0.60922044  0.69677802  0.95013306     0.09800
C727        C  0.52013041  0.68228830  0.92821984    -0.53800
C728        C  0.53193233  0.70892737  0.94972229     0.10300
H729        H  0.55274076  0.70169979  0.84266475     0.14900
H730        H  0.58512715  0.74546272  0.95961628     0.00600
H731        H  0.61780506  0.64881241  0.93169257     0.15200
H732        H  0.49123153  0.66889628  0.93300871     0.14900
C733        C  0.38736744  0.17257054  0.65003305     0.86700
C734        C  0.39244602  0.20173134  0.62423431    -0.53500
C735        C  0.40334021  0.22860072  0.64549889     0.09700
C736        C  0.40838917  0.22427111  0.69089006     0.20600
C737        C  0.43131098  0.17048621  0.67893245    -0.54200
C738        C  0.44221135  0.19752508  0.70003133     0.09800
C739        C  0.35357060  0.18238226  0.67710308    -0.53800
C740        C  0.36462677  0.20930542  0.69824740     0.10300
H741        H  0.38793346  0.20110613  0.59190820     0.14900
H742        H  0.41734543  0.24618199  0.70829654     0.00600
H743        H  0.45159581  0.14936671  0.68283040     0.15200
H744        H  0.32530238  0.16832964  0.68218631     0.14900
C745        C  0.43936989  0.36836266  0.58678109     0.86700
C746        C  0.47401666  0.35836275  0.56058497    -0.53500
C747        C  0.46320110  0.33151226  0.53919142     0.09700
C748        C  0.41892383  0.31679309  0.54550902     0.20600
C749        C  0.39612337  0.37067755  0.55707184    -0.54200
C750        C  0.38551981  0.34372117  0.53576681     0.09800
C751        C  0.43331937  0.33918958  0.61229133    -0.53800
C752        C  0.42270536  0.31239430  0.59080309     0.10300
H753        H  0.50278988  0.37211993  0.55623574     0.14900
H754        H  0.41016080  0.29494311  0.52792012     0.00600
H755        H  0.37594602  0.39184588  0.55299165     0.15200
H756        H  0.43701390  0.33974906  0.64459207     0.14900
C757        C  0.60526005  0.17185368  0.83609054     0.86700
C758        C  0.60017192  0.20083560  0.86210309    -0.53500
C759        C  0.58984585  0.22785901  0.84107570     0.09700
C760        C  0.58537831  0.22387362  0.79566846     0.20600
C761        C  0.56164936  0.17001809  0.80674792    -0.54200
C762        C  0.55134444  0.19720187  0.78584779     0.09800
C763        C  0.63967968  0.18187204  0.80961048    -0.53800
C764        C  0.62917909  0.20895895  0.78867915     0.10300
H765        H  0.60424289  0.19997845  0.89440991     0.14900
H766        H  0.57688155  0.24591877  0.77844724     0.00600
H767        H  0.54109709  0.14895990  0.80250468     0.15200
H768        H  0.66800910  0.16795573  0.80472351     0.14900
C769        C  0.55458946  0.36733589  0.89986536     0.86700
C770        C  0.52083000  0.35748707  0.92707281    -0.53500
C771        C  0.53210993  0.33084704  0.94867236     0.09700
C772        C  0.57597563  0.31611276  0.94151164     0.20600
C773        C  0.59850625  0.36994411  0.92867636    -0.54200
C774        C  0.60958043  0.34316513  0.95019210     0.09800
C775        C  0.55985099  0.33800706  0.87451313    -0.53800
C776        C  0.57097480  0.31139191  0.89617919     0.10300
H777        H  0.49239001  0.37126833  0.93197678     0.14900
H778        H  0.58512169  0.29441121  0.95925666     0.00600
H779        H  0.61869712  0.39120501  0.93212455     0.15200
H780        H  0.55536672  0.33834529  0.84217962     0.14900
O781        O  0.51581386  0.48829116  0.69879146    -0.74200
O782        O  0.54470601  0.55232657  0.77782132    -0.74200
O783        O  0.54526998  0.48802944  0.77756473    -0.74300
O784        O  0.51521708  0.55231700  0.69908551    -0.74300
O785        O  0.44568744  0.55215842  0.71128778    -0.74200
O786        O  0.47562770  0.48745326  0.78944435    -0.74200
O787        O  0.47524296  0.55168720  0.79019958    -0.74200
O788        O  0.44613281  0.48786168  0.71056806    -0.74300
Ni789      Ni  0.53270966  0.52026302  0.73791438     1.25400
Ni790      Ni  0.45818631  0.51976796  0.75082617     1.25400
C791        C  0.47642081  0.47714899  0.69200230     0.88000
C792        C  0.51456571  0.56304261  0.79652343     0.87900
C793        C  0.51514852  0.47662971  0.79588396     0.88000
C794        C  0.47576026  0.56322786  0.69264175     0.88100
O795        O  0.34884252  0.98812463  0.94846757    -0.74200
O796        O  0.37743366  0.05250438  0.52720866    -0.74200
O797        O  0.37760029  0.98826750  0.52746571    -0.74300
O798        O  0.34861568  0.05220535  0.94821426    -0.74300
O799        O  0.61213915  0.05204502  0.95962305    -0.74200
O800        O  0.64125677  0.98820992  0.53923876    -0.74200
O801        O  0.64099457  0.05249195  0.53871158    -0.74200
O802        O  0.61244701  0.98777841  0.96009636    -0.74300
Ni803      Ni  0.36557751  0.02028709  0.98744854     1.25400
Ni804      Ni  0.62421569  0.02011970  0.99984564     1.25400
C805        C  0.64278159  0.97697683  0.94164218     0.88000
C806        C  0.34713798  0.06355466  0.54548138     0.87900
C807        C  0.34737844  0.97726234  0.54597747     0.88000
C808        C  0.64245896  0.06301823  0.94118575     0.88100
C809        C  0.50191591  0.41120189  0.86911296    -0.13100
C810        C  0.54388407  0.39677157  0.87432120     0.09100
C811        C  0.57628616  0.40922770  0.85329466    -0.13100
C812        C  0.56746868  0.43563270  0.82869355    -0.13100
C813        C  0.52567944  0.44999243  0.82390336     0.09100
C814        C  0.49308857  0.43748086  0.84440517    -0.13100
H815        H  0.47492739  0.40204031  0.88272595     0.13000
H816        H  0.60856200  0.39831916  0.85577194     0.13000
H817        H  0.59317236  0.44442048  0.81287057     0.13000
H818        H  0.46028546  0.44765012  0.84081957     0.13000
C819        C  0.66526910  0.10135258  0.89203126    -0.13100
C820        C  0.63225405  0.08914572  0.91229623     0.09100
C821        C  0.59037735  0.10337979  0.90644224    -0.13100
C822        C  0.58205060  0.12960746  0.88144656    -0.13100
C823        C  0.61505758  0.14202133  0.86108004     0.09100
C824        C  0.65693165  0.12745355  0.86691753    -0.13100
H825        H  0.69808881  0.09118703  0.89627358     0.13000
H826        H  0.56428145  0.09473780  0.92189397     0.13000
H827        H  0.54977014  0.14056293  0.87838728     0.13000
H828        H  0.68425555  0.13649044  0.85365946     0.13000
C829        C  0.57786484  0.28169827  0.87740328    -0.13000
C830        C  0.58333577  0.25735196  0.86046736    -0.14600
C831        C  0.41622180  0.41027647  0.63238637    -0.13100
C832        C  0.44932157  0.39798533  0.61215490     0.09100
C833        C  0.49123269  0.41265509  0.61815736    -0.13100
C834        C  0.49948384  0.43879092  0.64321811    -0.13100
C835        C  0.46633884  0.45092662  0.66325952     0.09100
C836        C  0.42446555  0.43653613  0.65733477    -0.13100
H837        H  0.38389053  0.39925180  0.62916228     0.13000
H838        H  0.51860858  0.40373448  0.60499065     0.13000
H839        H  0.53231953  0.44906530  0.64755574     0.13000
H840        H  0.39828349  0.44511927  0.67263237     0.13000
C841        C  0.64832629  0.34139654  0.98010520    -0.13000
C842        C  0.34714136  0.34155711  0.50548694    -0.14600
C843        C  0.48760335  0.32234326  0.50797068    -0.13000
C844        C  0.50855243  0.32206546  0.98067227    -0.14600
C845        C  0.32458617  0.10337728  0.59302196    -0.13100
C846        C  0.35763649  0.09001167  0.57388154     0.09100
C847        C  0.40021409  0.10333496  0.58040487    -0.13100
C848        C  0.40937307  0.12959552  0.60519919    -0.13100
C849        C  0.37653250  0.14292456  0.62484852     0.09100
C850        C  0.33376804  0.12954027  0.61797794    -0.13100
H851        H  0.62453756  0.09405832  0.58804204     0.13000
H852        H  0.42635686  0.09386759  0.56573061     0.13000
H853        H  0.44225784  0.13975491  0.60877031     0.13000
H854        H  0.63985669  0.13960405  0.63035677     0.13000
C855        C  0.51294720  0.19965657  0.75557719    -0.13000
C856        C  0.48085816  0.19973258  0.73008937    -0.14600
C857        C  0.34094601  0.21831720  0.72999566    -0.13000
C858        C  0.65336417  0.21819832  0.75730520    -0.14600
C859        C  0.41555673  0.28271944  0.60964970    -0.13000
C860        C  0.40994727  0.25825577  0.62638095    -0.14600
C861        C  0.50269646  0.62584106  0.87351365    -0.13100
C862        C  0.54258589  0.64295450  0.87507013     0.09100
C863        C  0.57341243  0.63269201  0.85104614    -0.13100
C864        C  0.56485620  0.60631826  0.82639115    -0.13100
C865        C  0.52494942  0.58957470  0.82474713     0.09100
C866        C  0.49408853  0.59954948  0.84868294    -0.13100
H867        H  0.47721459  0.63258724  0.89044049     0.13000
H868        H  0.60420303  0.64540333  0.85113435     0.13000
H869        H  0.58918571  0.59946105  0.80798707     0.13000
H870        H  0.46288100  0.58724609  0.84789076     0.13000
C871        C  0.58233929  0.91013054  0.88213221    -0.13100
C872        C  0.61518589  0.89791439  0.86155441     0.09100
C873        C  0.65705992  0.91266385  0.86720881    -0.13100
C874        C  0.66554312  0.93872461  0.89243171    -0.13100
C875        C  0.63264057  0.95072997  0.91288756     0.09100
C876        C  0.59079065  0.93630704  0.90718147    -0.13100
H877        H  0.55004444  0.89906934  0.87915415     0.13000
H878        H  0.68421695  0.90384698  0.85364300     0.13000
H879        H  0.36500064  0.94906771  0.89652733     0.13000
H880        H  0.56476982  0.94479752  0.92274047     0.13000
C881        C  0.58159598  0.78270046  0.86046887    -0.13000
C882        C  0.57623365  0.75834389  0.87757389    -0.14600
C883        C  0.48927518  0.62643356  0.61672272    -0.13100
C884        C  0.44856791  0.64253729  0.61307670     0.09100
C885        C  0.41639889  0.63140639  0.63532746    -0.13100
C886        C  0.42458656  0.60517227  0.66036686    -0.13100
C887        C  0.46540349  0.58952510  0.66409612     0.09100
C888        C  0.49743021  0.60032355  0.64178366    -0.13100
H889        H  0.51586676  0.63395250  0.60148065     0.13000
H890        H  0.38492352  0.64336739  0.63363735     0.13000
H891        H  0.39928618  0.59758378  0.67741436     0.13000
H892        H  0.52935072  0.58890006  0.64416448     0.13000
C893        C  0.34672731  0.69828807  0.50568894    -0.13000
C894        C  0.64808242  0.69841367  0.98005935    -0.14600
C895        C  0.50840570  0.71811709  0.98152138    -0.13000
C896        C  0.48722167  0.71811661  0.50865517    -0.14600
C897        C  0.33443888  0.91310215  0.62120651    -0.13100
C898        C  0.37562865  0.89757179  0.62500489     0.09100
C899        C  0.40764239  0.90934705  0.60306380    -0.13100
C900        C  0.39901737  0.93573111  0.57839115    -0.13100
C901        C  0.35781834  0.95088818  0.57450312     0.10500
C902        C  0.32578249  0.93938527  0.59637756    -0.13100
H903        H  0.30787855  0.90488600  0.63606292     0.13000
H904        H  0.43941279  0.89780045  0.60473266     0.13000
H905        H  0.42435184  0.94380146  0.56167042     0.13000
H906        H  0.29353078  0.95034532  0.59376604     0.13000
C907        C  0.47986357  0.84128016  0.73030737    -0.13000
C908        C  0.51208288  0.84120903  0.75568997    -0.14600
C909        C  0.65231400  0.82173475  0.75741543    -0.13000
C910        C  0.33986708  0.82158630  0.73006334    -0.14600
C911        C  0.40962476  0.78231288  0.62662942    -0.13000
C912        C  0.41519874  0.75785147  0.60993260    -0.14600
C913        C  0.71947416  0.86783077  0.15015870     0.86700
C914        C  0.68555789  0.85754734  0.17700765    -0.53500
C915        C  0.69687996  0.83074671  0.19827849     0.09700
C916        C  0.74088753  0.81624069  0.19110696     0.20600
C917        C  0.76330682  0.87025602  0.17916031    -0.54200
C918        C  0.77440964  0.84329923  0.20033891     0.09800
C919        C  0.72494786  0.83871944  0.12441109    -0.53800
C920        C  0.73609503  0.81191720  0.14571652     0.10300
H921        H  0.65682209  0.87100986  0.18181988     0.14900
H922        H  0.75001409  0.79439324  0.20855576     0.00600
H923        H  0.78345168  0.89153022  0.18291513     0.15200
H924        H  0.72053698  0.83933363  0.09208715     0.14900
C925        C  0.77207211  0.67213567  0.08757645     0.86700
C926        C  0.76612299  0.70140794  0.11289137    -0.53500
C927        C  0.75547480  0.72810201  0.09122563     0.09700
C928        C  0.75164457  0.72351825  0.04593743     0.20600
C929        C  0.72877505  0.66960341  0.05793783    -0.54200
C930        C  0.71822574  0.69642554  0.03632883     0.09800
C931        C  0.80674212  0.68222774  0.06134027    -0.53800
C932        C  0.79592851  0.70894542  0.03976548     0.10300
H933        H  0.76993261  0.70099311  0.14520081     0.14900
H934        H  0.74292217  0.74527730  0.02818585     0.00600
H935        H  0.70860904  0.64834180  0.05406310     0.15200
H936        H  0.83577559  0.66884074  0.05723522     0.14900
C937        C  0.93834342  0.86818512  0.33638762     0.86700
C938        C  0.97265233  0.85799713  0.30996397    -0.53500
C939        C  0.96159317  0.83103965  0.28883768     0.09700
C940        C  0.91741795  0.81639151  0.29568855     0.20600
C941        C  0.89484057  0.87037763  0.30697093    -0.54200
C942        C  0.88395606  0.84332565  0.28592909     0.09800
C943        C  0.93258475  0.83916771  0.36223979    -0.53800
C944        C  0.92172430  0.81224939  0.34110144     0.10300
H945        H  0.00137632  0.87169631  0.30531717     0.14900
H946        H  0.90848186  0.79444666  0.27835164     0.00600
H947        H  0.87473935  0.89157929  0.30282659     0.15200
H948        H  0.93669839  0.83991644  0.39455197     0.14900
C949        C  0.88664110  0.67251498  0.40049124     0.86700
C950        C  0.89131703  0.70196649  0.37501026    -0.53500
C951        C  0.90302616  0.72858165  0.39655272     0.09700
C952        C  0.90895215  0.72376896  0.44193308     0.20600
C953        C  0.93104021  0.67004444  0.42860513    -0.54200
C954        C  0.94255384  0.69677799  0.45013307     0.09800
C955        C  0.85346377  0.68228829  0.42821981    -0.53800
C956        C  0.86526575  0.70892739  0.44972227     0.10300
H957        H  0.88607419  0.70169974  0.34266491     0.14900
H958        H  0.91846068  0.74546275  0.45961631     0.00600
H959        H  0.95113825  0.64881241  0.43169257     0.15200
H960        H  0.82456485  0.66889631  0.43300866     0.14900
C961        C  0.72070089  0.17257058  0.15003314     0.86700
C962        C  0.72577954  0.20173136  0.12423438    -0.53500
C963        C  0.73667369  0.22860074  0.14549894     0.09700
C964        C  0.74172268  0.22427110  0.19089008     0.20600
C965        C  0.76464444  0.17048631  0.17893251    -0.54200
C966        C  0.77554486  0.19752513  0.20003138     0.09800
C967        C  0.68690401  0.18238228  0.17710320    -0.53800
C968        C  0.69796026  0.20930545  0.19824747     0.10300
H969        H  0.72126694  0.20110615  0.09190828     0.14900
H970        H  0.75067895  0.24618196  0.20829652     0.00600
H971        H  0.78492923  0.14936684  0.18283046     0.15200
H972        H  0.65863571  0.16832967  0.18218645     0.14900
C973        C  0.77270314  0.36836264  0.08678099     0.86700
C974        C  0.80735005  0.35836269  0.06058497    -0.53500
C975        C  0.79653445  0.33151216  0.03919147     0.09700
C976        C  0.75225715  0.31679304  0.04550905     0.20600
C977        C  0.72945656  0.37067760  0.05707169    -0.54200
C978        C  0.71885313  0.34372114  0.03576672     0.09800
C979        C  0.76665256  0.33918955  0.11229118    -0.53800
C980        C  0.75603858  0.31239426  0.09080304     0.10300
H981        H  0.83612329  0.37211991  0.05623572     0.14900
H982        H  0.74349414  0.29494305  0.02792020     0.00600
H983        H  0.70927918  0.39184600  0.05299139     0.15200
H984        H  0.77034702  0.33974904  0.14459186     0.14900
C985        C  0.93859352  0.17185376  0.33609063     0.86700
C986        C  0.93350539  0.20083569  0.36210326    -0.53500
C987        C  0.92317930  0.22785908  0.34107577     0.09700
C988        C  0.91871176  0.22387369  0.29566851     0.20600
C989        C  0.89498278  0.17001811  0.30674797    -0.54200
C990        C  0.88467791  0.19720192  0.28584785     0.09800
C991        C  0.97301317  0.18187214  0.30961054    -0.53800
C992        C  0.96251254  0.20895904  0.28867921     0.10300
H993        H  0.93757636  0.19997856  0.39441013     0.14900
H994        H  0.91021499  0.24591883  0.27844729     0.00600
H995        H  0.87443047  0.14895990  0.30250473     0.15200
H996        H  0.00134261  0.16795583  0.30472360     0.14900
C997        C  0.88792266  0.36733591  0.39986538     0.86700
C998        C  0.85416329  0.35748700  0.42707280    -0.53500
C999        C  0.86544318  0.33084702  0.44867239     0.09700
C1000       C  0.90930889  0.31611280  0.44151170     0.20600
C1001       C  0.93183941  0.36994420  0.42867641    -0.54200
C1002       C  0.94291364  0.34316522  0.45019217     0.09800
C1003       C  0.89318425  0.33800710  0.37451319    -0.53800
C1004       C  0.90430812  0.31139196  0.39617925     0.10300
H1005       H  0.82572334  0.37126820  0.43197673     0.14900
H1006       H  0.91845497  0.29441126  0.45925672     0.00600
H1007       H  0.95203025  0.39120512  0.43212456     0.15200
H1008       H  0.88870006  0.33834534  0.34217968     0.14900
O1009       O  0.84914724  0.48829107  0.19879147    -0.74200
O1010       O  0.87803944  0.55232653  0.27782127    -0.74200
O1011       O  0.87860330  0.48802939  0.27756473    -0.74300
O1012       O  0.84855060  0.55231694  0.19908543    -0.74300
O1013       O  0.77902094  0.55215839  0.21128765    -0.74200
O1014       O  0.80896100  0.48745329  0.28944431    -0.74200
O1015       O  0.80857636  0.55168724  0.29019944    -0.74200
O1016       O  0.77946617  0.48786165  0.21056802    -0.74300
Ni1017     Ni  0.86604309  0.52026296  0.23791435     1.25400
Ni1018     Ni  0.79151971  0.51976797  0.25082608     1.25400
C1019       C  0.80975418  0.47714891  0.19200230     0.88000
C1020       C  0.84789912  0.56304261  0.29652334     0.87900
C1021       C  0.84848180  0.47662970  0.29588394     0.88000
C1022       C  0.80909378  0.56322781  0.19264164     0.88100
O1023       O  0.68217584  0.98812463  0.44846750    -0.74200
O1024       O  0.71076711  0.05250436  0.02720875    -0.74200
O1025       O  0.71093360  0.98826749  0.02746572    -0.74300
O1026       O  0.68194894  0.05220533  0.44821419    -0.74300
O1027       O  0.94547240  0.05204500  0.45962303    -0.74200
O1028       O  0.97459016  0.98820991  0.03923874    -0.74200
O1029       O  0.97432801  0.05249195  0.03871158    -0.74200
O1030       O  0.94578034  0.98777840  0.46009631    -0.74300
Ni1031     Ni  0.69891079  0.02028709  0.48744848     1.25400
Ni1032     Ni  0.95754893  0.02011969  0.49984561     1.25400
C1033       C  0.97611493  0.97697684  0.44164213     0.88000
C1034       C  0.68047144  0.06355465  0.04548147     0.87900
C1035       C  0.68071173  0.97726232  0.04597743     0.88000
C1036       C  0.97579222  0.06301822  0.44118575     0.88100
C1037       C  0.83524921  0.41120203  0.36911310    -0.13100
C1038       C  0.87721723  0.39677158  0.37432120     0.09100
C1039       C  0.90961923  0.40922757  0.35329449    -0.13100
C1040       C  0.90080178  0.43563254  0.32869333    -0.13100
C1041       C  0.85901265  0.44999240  0.32390330     0.09100
C1042       C  0.82642186  0.43748097  0.34440529    -0.13100
H1043       H  0.80826077  0.40204060  0.38272626     0.13000
H1044       H  0.94189498  0.39831895  0.35577166     0.13000
H1045       H  0.92650542  0.44442019  0.31287021     0.13000
H1046       H  0.79361881  0.44765031  0.34081984     0.13000
C1047       C  0.99860252  0.10135258  0.39203138    -0.13100
C1048       C  0.96558742  0.08914576  0.41229626     0.09100
C1049       C  0.92371076  0.10337993  0.40644226    -0.13100
C1050       C  0.91538388  0.12960764  0.38144662    -0.13100
C1051       C  0.94839096  0.14202143  0.36108015     0.09100
C1052       C  0.99026503  0.12745357  0.36691769    -0.13100
H1053       H  0.03142225  0.09118701  0.39627370     0.13000
H1054       H  0.89761495  0.09473791  0.42189398     0.13000
H1055       H  0.88310336  0.14056314  0.37838738     0.13000
H1056       H  0.01758890  0.13649045  0.35365963     0.13000
C1057       C  0.91119829  0.28169835  0.37740335    -0.13000
C1058       C  0.91666925  0.25735205  0.36046740    -0.14600
C1059       C  0.74955504  0.41027657  0.13238612    -0.13100
C1060       C  0.78265483  0.39798529  0.11215482     0.09100
C1061       C  0.82456597  0.41265494  0.11815749    -0.13100
C1062       C  0.83281716  0.43879072  0.14321826    -0.13100
C1063       C  0.79967218  0.45092655  0.16325952     0.09100
C1064       C  0.75779882  0.43653620  0.15733458    -0.13100
H1065       H  0.71722371  0.39925201  0.12916190     0.13000
H1066       H  0.85194189  0.40373426  0.10499094     0.13000
H1067       H  0.86565291  0.44906494  0.14755601     0.13000
H1068       H  0.73161671  0.44511941  0.17263204     0.13000
C1069       C  0.98165953  0.34139662  0.48010523    -0.13000
C1070       C  0.68047477  0.34155704  0.00548680    -0.14600
C1071       C  0.82093667  0.32234313  0.00797074    -0.13000
C1072       C  0.84188568  0.32206547  0.48067232    -0.14600
C1073       C  0.65791975  0.10337712  0.09302232    -0.13100
C1074       C  0.69096997  0.09001166  0.07388168     0.09100
C1075       C  0.73354752  0.10333508  0.08040480    -0.13100
C1076       C  0.74270659  0.12959567  0.10519913    -0.13100
C1077       C  0.70986601  0.14292458  0.12484863     0.09100
C1078       C  0.66710159  0.12954012  0.11797829    -0.13100
H1079       H  0.95787089  0.09405837  0.08804202     0.13000
H1080       H  0.75969016  0.09386777  0.06573035     0.13000
H1081       H  0.77559135  0.13975518  0.10877010     0.13000
H1082       H  0.97319015  0.13960401  0.13035664     0.13000
C1083       C  0.84628071  0.19965662  0.25557723    -0.13000
C1084       C  0.81419168  0.19973262  0.23008941    -0.14600
C1085       C  0.67427951  0.21831730  0.22999570    -0.13000
C1086       C  0.98669756  0.21819840  0.25730523    -0.14600
C1087       C  0.74888995  0.28271944  0.10964970    -0.13000
C1088       C  0.74328057  0.25825579  0.12638098    -0.14600
C1089       C  0.83602965  0.62584114  0.37351358    -0.13100
C1090       C  0.87591925  0.64295449  0.37507012     0.09100
C1091       C  0.90674593  0.63269195  0.35104623    -0.13100
C1092       C  0.89818967  0.60631819  0.32639126    -0.13100
C1093       C  0.85828282  0.58957469  0.32474708     0.09100
C1094       C  0.82742184  0.59954955  0.34868280    -0.13100
H1095       H  0.81054765  0.63258739  0.39044035     0.13000
H1096       H  0.93753664  0.64540321  0.35113451     0.13000
H1097       H  0.92251922  0.59946091  0.30798729     0.13000
H1098       H  0.79621430  0.58724616  0.34789043     0.13000
C1099       C  0.91567287  0.91013034  0.38213251    -0.13100
C1100       C  0.94851928  0.89791441  0.36155434     0.09100
C1101       C  0.99039310  0.91266416  0.36720832    -0.13100
C1102       C  0.99887626  0.93872492  0.39243123    -0.13100
C1103       C  0.96597391  0.95073000  0.41288748     0.09100
C1104       C  0.92412420  0.93630682  0.40718176    -0.13100
H1105       H  0.88337817  0.89906897  0.37915473     0.13000
H1106       H  0.01755001  0.90384757  0.35364215     0.13000
H1107       H  0.69833392  0.94906828  0.39652652     0.13000
H1108       H  0.89810349  0.94479707  0.42274106     0.13000
C1109       C  0.91492940  0.78270044  0.36046882    -0.13000
C1110       C  0.90956711  0.75834386  0.37757387    -0.14600
C1111       C  0.82260864  0.62643362  0.11672275    -0.13100
C1112       C  0.78190132  0.64253725  0.11307666     0.09100
C1113       C  0.74973239  0.63140628  0.13532740    -0.13100
C1114       C  0.75792007  0.60517219  0.16036679    -0.13100
C1115       C  0.79873702  0.58952507  0.16409605     0.09100
C1116       C  0.83076372  0.60032361  0.14178366    -0.13100
H1117       H  0.84920023  0.63395265  0.10148078     0.13000
H1118       H  0.71825701  0.64336720  0.13363727     0.13000
H1119       H  0.73261967  0.59758368  0.17741424     0.13000
H1120       H  0.86268427  0.58890018  0.14416451     0.13000
C1121       C  0.68006058  0.69828805  0.00568899    -0.13000
C1122       C  0.98141585  0.69841358  0.48005935    -0.14600
C1123       C  0.84173913  0.71811716  0.48152135    -0.13000
C1124       C  0.82055501  0.71811651  0.00865508    -0.14600
C1125       C  0.66777201  0.91310185  0.12120606    -0.13100
C1126       C  0.70896188  0.89757172  0.12500474     0.09100
C1127       C  0.74097563  0.90934715  0.10306387    -0.13100
C1128       C  0.73235066  0.93573119  0.07839124    -0.13100
C1129       C  0.69115158  0.95088809  0.07450298     0.10500
C1130       C  0.65911565  0.93938496  0.09637712    -0.13100
H1131       H  0.64121157  0.90488554  0.13606219     0.13000
H1132       H  0.77274611  0.89780072  0.10473290     0.13000
H1133       H  0.75768526  0.94380163  0.06167075     0.13000
H1134       H  0.62686385  0.95034483  0.09376539     0.13000
C1135       C  0.81319681  0.84128022  0.23030740    -0.13000
C1136       C  0.84541615  0.84120908  0.25568997    -0.14600
C1137       C  0.98564743  0.82173468  0.25741546    -0.13000
C1138       C  0.67320047  0.82158627  0.23006325    -0.14600
C1139       C  0.74295830  0.78231287  0.12662936    -0.13000
C1140       C  0.74853224  0.75785145  0.10993254    -0.14600
C1141       C  0.71947406  0.86783076  0.65015869     0.86700
C1142       C  0.68555777  0.85754741  0.67700773    -0.53500
C1143       C  0.69687988  0.83074673  0.69827852     0.09700
C1144       C  0.74088744  0.81624066  0.69110692     0.20600
C1145       C  0.76330680  0.87025594  0.67916021    -0.54200
C1146       C  0.77440960  0.84329916  0.70033881     0.09800
C1147       C  0.72494766  0.83871941  0.62441105    -0.53800
C1148       C  0.73609483  0.81191716  0.64571649     0.10300
H1149       H  0.65682193  0.87100994  0.68182001     0.14900
H1150       H  0.75001400  0.79439320  0.70855572     0.00600
H1151       H  0.78345171  0.89153012  0.68291499     0.15200
H1152       H  0.72053672  0.83933357  0.59208710     0.14900
C1153       C  0.77207212  0.67213567  0.58757645     0.86700
C1154       C  0.76612293  0.70140793  0.61289138    -0.53500
C1155       C  0.75547473  0.72810200  0.59122567     0.09700
C1156       C  0.75164459  0.72351826  0.54593749     0.20600
C1157       C  0.72877509  0.66960339  0.55793776    -0.54200
C1158       C  0.71822579  0.69642553  0.53632880     0.09800
C1159       C  0.80674220  0.68222781  0.56134034    -0.53800
C1160       C  0.79592857  0.70894550  0.53976557     0.10300
H1161       H  0.76993251  0.70099309  0.64520082     0.14900
H1162       H  0.74292217  0.74527731  0.52818596     0.00600
H1163       H  0.70860909  0.64834174  0.55406297     0.15200
H1164       H  0.83577573  0.66884084  0.55723531     0.14900
C1165       C  0.93834325  0.86818514  0.83638755     0.86700
C1166       C  0.97265216  0.85799712  0.80996395    -0.53500
C1167       C  0.96159301  0.83103965  0.78883765     0.09700
C1168       C  0.91741781  0.81639150  0.79568851     0.20600
C1169       C  0.89484040  0.87037767  0.80697086    -0.54200
C1170       C  0.88395592  0.84332566  0.78592904     0.09800
C1171       C  0.93258455  0.83916774  0.86223964    -0.53800
C1172       C  0.92172412  0.81224941  0.84110137     0.10300
H1173       H  0.00137607  0.87169636  0.80531711     0.14900
H1174       H  0.90848172  0.79444664  0.77835161     0.00600
H1175       H  0.87473918  0.89157936  0.80282647     0.15200
H1176       H  0.93669814  0.83991648  0.89455177     0.14900
C1177       C  0.88664121  0.67251501  0.90049119     0.86700
C1178       C  0.89131705  0.70196654  0.87501021    -0.53500
C1179       C  0.90302614  0.72858169  0.89655265     0.09700
C1180       C  0.90895215  0.72376896  0.94193298     0.20600
C1181       C  0.93104040  0.67004445  0.92860507    -0.54200
C1182       C  0.94255392  0.69677803  0.95013298     0.09800
C1183       C  0.85346389  0.68228829  0.92821980    -0.53800
C1184       C  0.86526581  0.70892738  0.94972225     0.10300
H1185       H  0.88607420  0.70169979  0.84266486     0.14900
H1186       H  0.91846064  0.74546273  0.95961617     0.00600
H1187       H  0.95113850  0.64881240  0.93169252     0.15200
H1188       H  0.82456504  0.66889627  0.93300871     0.14900
C1189       C  0.72070080  0.17257055  0.65003306     0.86700
C1190       C  0.72577939  0.20173133  0.62423432    -0.53500
C1191       C  0.73667356  0.22860072  0.64549890     0.09700
C1192       C  0.74172257  0.22427110  0.69089007     0.20600
C1193       C  0.76464431  0.17048629  0.67893243    -0.54200
C1194       C  0.77554474  0.19752511  0.70003133     0.09800
C1195       C  0.68690400  0.18238225  0.67710312    -0.53800
C1196       C  0.69796017  0.20930541  0.69824743     0.10300
H1197       H  0.72126678  0.20110612  0.59190822     0.14900
H1198       H  0.75067884  0.24618198  0.70829655     0.00600
H1199       H  0.78492910  0.14936683  0.68283037     0.15200
H1200       H  0.65863576  0.16832962  0.68218635     0.14900
C1201       C  0.77270315  0.36836264  0.58678111     0.86700
C1202       C  0.80735004  0.35836273  0.56058505    -0.53500
C1203       C  0.79653443  0.33151221  0.53919152     0.09700
C1204       C  0.75225709  0.31679308  0.54550905     0.20600
C1205       C  0.72945668  0.37067755  0.55707179    -0.54200
C1206       C  0.71885314  0.34372117  0.53576675     0.09800
C1207       C  0.76665251  0.33918958  0.61229135    -0.53800
C1208       C  0.75603852  0.31239430  0.59080310     0.10300
H1209       H  0.83612331  0.37211992  0.55623583     0.14900
H1210       H  0.74349405  0.29494310  0.52792015     0.00600
H1211       H  0.70927938  0.39184589  0.55299154     0.15200
H1212       H  0.77034701  0.33974905  0.64459209     0.14900
C1213       C  0.93859347  0.17185368  0.83609052     0.86700
C1214       C  0.93350536  0.20083559  0.86210309    -0.53500
C1215       C  0.92317926  0.22785902  0.84107572     0.09700
C1216       C  0.91871169  0.22387363  0.79566848     0.20600
C1217       C  0.89498274  0.17001810  0.80674793    -0.54200
C1218       C  0.88467781  0.19720189  0.78584782     0.09800
C1219       C  0.97301307  0.18187203  0.80961044    -0.53800
C1220       C  0.96251246  0.20895895  0.78867915     0.10300
H1221       H  0.93757635  0.19997843  0.89440991     0.14900
H1222       H  0.91021493  0.24591878  0.77844728     0.00600
H1223       H  0.87443047  0.14895991  0.80250468     0.15200
H1224       H  0.00134249  0.16795571  0.80472347     0.14900
C1225       C  0.88792271  0.36733590  0.89986544     0.86700
C1226       C  0.85416337  0.35748703  0.92707292    -0.53500
C1227       C  0.86544328  0.33084702  0.94867245     0.09700
C1228       C  0.90930894  0.31611276  0.94151169     0.20600
C1229       C  0.93183951  0.36994412  0.92867640    -0.54200
C1230       C  0.94291374  0.34316514  0.95019213     0.09800
C1231       C  0.89318419  0.33800708  0.87451319    -0.53800
C1232       C  0.90430806  0.31139192  0.89617924     0.10300
H1233       H  0.82572340  0.37126825  0.93197688     0.14900
H1234       H  0.91845502  0.29441121  0.95925669     0.00600
H1235       H  0.95203038  0.39120502  0.93212457     0.15200
H1236       H  0.88869990  0.33834532  0.84217968     0.14900
O1237       O  0.84914726  0.48829114  0.69879145    -0.74200
O1238       O  0.87803944  0.55232652  0.77782135    -0.74200
O1239       O  0.87860336  0.48802938  0.77756474    -0.74300
O1240       O  0.84855051  0.55231699  0.69908554    -0.74300
O1241       O  0.77902087  0.55215840  0.71128779    -0.74200
O1242       O  0.80896107  0.48745325  0.78944435    -0.74200
O1243       O  0.80857638  0.55168718  0.79019957    -0.74200
O1244       O  0.77946621  0.48786168  0.71056806    -0.74300
Ni1245     Ni  0.86604308  0.52026299  0.73791441     1.25400
Ni1246     Ni  0.79151973  0.51976795  0.75082617     1.25400
C1247       C  0.80975420  0.47714899  0.69200229     0.88000
C1248       C  0.84789913  0.56304258  0.79652343     0.87900
C1249       C  0.84848188  0.47662968  0.79588397     0.88000
C1250       C  0.80909367  0.56322783  0.69264174     0.88100
O1251       O  0.68217583  0.98812465  0.94846753    -0.74200
O1252       O  0.71076699  0.05250440  0.52720870    -0.74200
O1253       O  0.71093356  0.98826751  0.52746573    -0.74300
O1254       O  0.68194901  0.05220536  0.94821423    -0.74300
O1255       O  0.94547249  0.05204501  0.95962302    -0.74200
O1256       O  0.97459004  0.98820991  0.53923873    -0.74200
O1257       O  0.97432789  0.05249193  0.53871162    -0.74200
O1258       O  0.94578035  0.98777838  0.96009633    -0.74300
Ni1259     Ni  0.69891085  0.02028708  0.98744851     1.25400
Ni1260     Ni  0.95754902  0.02011969  0.99984561     1.25400
C1261       C  0.97611492  0.97697681  0.94164213     0.88000
C1262       C  0.68047130  0.06355468  0.54548141     0.87900
C1263       C  0.68071168  0.97726235  0.54597746     0.88000
C1264       C  0.97579233  0.06301823  0.94118576     0.88100
C1265       C  0.83524935  0.41120207  0.86911327    -0.13100
C1266       C  0.87721730  0.39677160  0.87432131     0.09100
C1267       C  0.90961925  0.40922761  0.85329460    -0.13100
C1268       C  0.90080180  0.43563256  0.82869348    -0.13100
C1269       C  0.85901279  0.44999240  0.82390340     0.09100
C1270       C  0.82642217  0.43748097  0.84440544    -0.13100
H1271       H  0.80826083  0.40204072  0.88272642     0.13000
H1272       H  0.94189500  0.39831902  0.85577173     0.13000
H1273       H  0.92650541  0.44442018  0.81287038     0.13000
H1274       H  0.79361923  0.44765030  0.84082000     0.13000
C1275       C  0.99860250  0.10135272  0.89203142    -0.13100
C1276       C  0.96558747  0.08914576  0.91229627     0.09100
C1277       C  0.92371075  0.10337977  0.90644216    -0.13100
C1278       C  0.91538399  0.12960742  0.88144644    -0.13100
C1279       C  0.94839102  0.14202133  0.86108002     0.09100
C1280       C  0.99026510  0.12745362  0.86691765    -0.13100
H1281       H  0.03142222  0.09118725  0.89627384     0.13000
H1282       H  0.89761483  0.09473772  0.92189379     0.13000
H1283       H  0.88310349  0.14056284  0.87838708     0.13000
H1284       H  0.01758904  0.13649053  0.85365968     0.13000
C1285       C  0.91119816  0.28169828  0.87740331    -0.13000
C1286       C  0.91666916  0.25735196  0.86046740    -0.14600
C1287       C  0.74955507  0.41027659  0.63238624    -0.13100
C1288       C  0.78265483  0.39798531  0.61215492     0.09100
C1289       C  0.82456604  0.41265495  0.61815754    -0.13100
C1290       C  0.83281724  0.43879082  0.64321822    -0.13100
C1291       C  0.79967220  0.45092663  0.66325948     0.09100
C1292       C  0.75779888  0.43653624  0.65733460    -0.13100
H1293       H  0.71722373  0.39925203  0.62916207     0.13000
H1294       H  0.85194196  0.40373421  0.60499097     0.13000
H1295       H  0.86565300  0.44906511  0.64755596     0.13000
H1296       H  0.73161679  0.44511945  0.67263206     0.13000
C1297       C  0.98165963  0.34139655  0.98010521    -0.13000
C1298       C  0.68047477  0.34155714  0.50548679    -0.14600
C1299       C  0.82093664  0.32234321  0.50797077    -0.13000
C1300       C  0.84188577  0.32206539  0.98067233    -0.14600
C1301       C  0.65791951  0.10337729  0.59302202    -0.13100
C1302       C  0.69096983  0.09001167  0.57388160     0.09100
C1303       C  0.73354744  0.10333495  0.58040491    -0.13100
C1304       C  0.74270642  0.12959552  0.60519921    -0.13100
C1305       C  0.70986586  0.14292457  0.62484854     0.09100
C1306       C  0.66710139  0.12954030  0.61797797    -0.13100
H1307       H  0.95787086  0.09405836  0.58804199     0.13000
H1308       H  0.75969021  0.09386756  0.56573065     0.13000
H1309       H  0.77559118  0.13975492  0.60877031     0.13000
H1310       H  0.97318997  0.13960415  0.63035668     0.13000
C1311       C  0.84628057  0.19965659  0.75557722    -0.13000
C1312       C  0.81419155  0.19973258  0.73008937    -0.14600
C1313       C  0.67427939  0.21831720  0.72999568    -0.13000
C1314       C  0.98669754  0.21819835  0.75730521    -0.14600
C1315       C  0.74888992  0.28271944  0.60964970    -0.13000
C1316       C  0.74328051  0.25825577  0.62638096    -0.14600
C1317       C  0.83602965  0.62584124  0.87351351    -0.13100
C1318       C  0.87591931  0.64295453  0.87507006     0.09100
C1319       C  0.90674601  0.63269198  0.85104615    -0.13100
C1320       C  0.89818973  0.60631819  0.82639117    -0.13100
C1321       C  0.85828283  0.58957471  0.82474708     0.09100
C1322       C  0.82742181  0.59954963  0.84868275    -0.13100
H1323       H  0.81054762  0.63258754  0.89044022     0.13000
H1324       H  0.93753672  0.64540327  0.85113444     0.13000
H1325       H  0.92251928  0.59946086  0.80798716     0.13000
H1326       H  0.79621422  0.58724629  0.84789037     0.13000
C1327       C  0.91567260  0.91013053  0.88213215    -0.13100
C1328       C  0.94851913  0.89791440  0.86155433     0.09100
C1329       C  0.99039309  0.91266390  0.86720874    -0.13100
C1330       C  0.99887641  0.93872464  0.89243161    -0.13100
C1331       C  0.96597391  0.95072996  0.91288749     0.09100
C1332       C  0.92412400  0.93630702  0.90718143    -0.13100
H1333       H  0.88337776  0.89906934  0.87915410     0.13000
H1334       H  0.01755004  0.90384706  0.85364292     0.13000
H1335       H  0.69833381  0.94906811  0.89652677     0.13000
H1336       H  0.89810319  0.94479747  0.92274047     0.13000
C1337       C  0.91492924  0.78270048  0.86046878    -0.13000
C1338       C  0.90956701  0.75834389  0.87757379    -0.14600
C1339       C  0.82260861  0.62643353  0.61672256    -0.13100
C1340       C  0.78190130  0.64253723  0.61307662     0.09100
C1341       C  0.74973232  0.63140629  0.63532743    -0.13100
C1342       C  0.75791990  0.60517220  0.66036686    -0.13100
C1343       C  0.79873684  0.58952504  0.66409606     0.09100
C1344       C  0.83076356  0.60032347  0.64178352    -0.13100
H1345       H  0.84920022  0.63395250  0.60148045     0.13000
H1346       H  0.71825701  0.64336727  0.63363731     0.13000
H1347       H  0.73261948  0.59758377  0.67741439     0.13000
H1348       H  0.86268405  0.58889992  0.64416435     0.13000
C1349       C  0.68006064  0.69828806  0.50568894    -0.13000
C1350       C  0.98141585  0.69841366  0.98005932    -0.14600
C1351       C  0.84173919  0.71811711  0.98152135    -0.13000
C1352       C  0.82055502  0.71811661  0.50865513    -0.14600
C1353       C  0.66777216  0.91310207  0.62120637    -0.13100
C1354       C  0.70896181  0.89757173  0.62500475     0.09100
C1355       C  0.74097539  0.90934701  0.60306364    -0.13100
C1356       C  0.73235047  0.93573107  0.57839105    -0.13100
C1357       C  0.69115157  0.95088815  0.57450306     0.10500
C1358       C  0.65911586  0.93938517  0.59637748    -0.13100
H1359       H  0.64121181  0.90488598  0.63606273     0.13000
H1360       H  0.77274572  0.89780044  0.60473242     0.13000
H1361       H  0.75768497  0.94380136  0.56167037     0.13000
H1362       H  0.62686421  0.95034517  0.59376601     0.13000
C1363       C  0.81319676  0.84128016  0.73030730    -0.13000
C1364       C  0.84541608  0.84120906  0.75568989    -0.14600
C1365       C  0.98564724  0.82173473  0.75741538    -0.13000
C1366       C  0.67320039  0.82158625  0.73006324    -0.14600
C1367       C  0.74295809  0.78231284  0.62662936    -0.13000
C1368       C  0.74853208  0.75785141  0.60993257    -0.14600
loop_ 
_geom_bond_atom_site_label_1 
_geom_bond_atom_site_label_2 
_geom_bond_distance 
_geom_bond_site_symmetry_2 
_ccdc_geom_bond_type 
C1            C2   1.544       .  S
C1            C7   1.536       .  S
C1            C5   1.543       .  S
C1          C214   1.529       .  S
C2            H9   1.082   1_455  S
C2            C3   1.362       .  D
C3            C4   1.534       .  S
C3          C226   1.441       .  S
C4            C8   1.538       .  S
C4            C6   1.536       .  S
C4           H10   1.112       .  S
C5           H11   1.086       .  S
C5            C6   1.365       .  D
C6          C223   1.445       .  S
C7           H12   1.087       .  S
C7            C8   1.362       .  D
C8          C227   1.442       .  S
C13          C14   1.536       .  S
C13          C19   1.545       .  S
C13          C17   1.541       .  S
C13         C200   1.527       .  S
C14          H21   1.087       .  S
C14          C15   1.361       .  D
C15          C16   1.538       .  S
C15         C228   1.442       .  S
C16          C20   1.534       .  S
C16          C18   1.536       .  S
C16          H22   1.112       .  S
C17          H23   1.087       .  S
C17          C18   1.365       .  D
C18         C209   1.444       .  S
C19          H24   1.082       .  S
C19          C20   1.362       .  D
C20         C212   1.441       .  S
C25          C26   1.544       .  S
C25          C31   1.535       .  S
C25          C29   1.542       .  S
C25         C188   1.527       .  S
C26          H33   1.083       .  S
C26          C27   1.363       .  D
C27          C28   1.535       .  S
C27         C225   1.442       .  S
C28          C32   1.539       .  S
C28          C30   1.537       .  S
C28          H34   1.112       .  S
C29          H35   1.086       .  S
C29          C30   1.364       .  D
C30         C224   1.445       .  S
C31          H36   1.087       .  S
C31          C32   1.361       .  D
C32         C197   1.442       .  S
C37          C38   1.536       .  S
C37          C43   1.544       .  S
C37          C41   1.542       .  S
C37         C178   1.528       .  S
C38          H45   1.087       .  S
C38          C39   1.361       .  D
C39          C40   1.539       .  S
C39         C198   1.442       .  S
C40          C44   1.534       .  S
C40          C42   1.536       .  S
C40          H46   1.112       .  S
C41          H47   1.087       .  S
C41          C42   1.364       .  D
C42         C210   1.444       .  S
C43          H48   1.082       .  S
C43          C44   1.362       .  D
C44         C211   1.441       .  S
C49          C50   1.535       .  S
C49          C55   1.543       .  S
C49          C53   1.543       .  S
C49         C165   1.527       .  S
C50          H57   1.087       .  S
C50          C51   1.361       .  D
C51          C52   1.538       .  S
C51         C176   1.441       .  S
C52          C56   1.534       .  S
C52          C54   1.536       .  S
C52          H58   1.112       .  S
C53          H59   1.086       .  S
C53          C54   1.365       .  D
C54         C172   1.444       .  S
C55          H60   1.084   1_455  S
C55          C56   1.362       .  D
C56         C173   1.440       .  S
C61          C62   1.545       .  S
C61          C67   1.535       .  S
C61          C65   1.541       .  S
C61         C148   1.526       .  S
C62          H69   1.083       .  S
C62          C63   1.362       .  D
C63          C64   1.534       .  S
C63         C159   1.441       .  S
C64          C68   1.538       .  S
C64          C66   1.535       .  S
C64          H70   1.112       .  S
C65          H71   1.087       .  S
C65          C66   1.364       .  D
C66         C158   1.442       .  S
C67          H72   1.087       .  S
C67          C68   1.361       .  D
C68         C175   1.441       .  S
C73          C74   1.535       .  S
C73          C79   1.544       .  S
C73          C77   1.542       .  S
C73         C139   1.526       .  S
C74          H81   1.087       .  S
C74          C75   1.361       .  D
C75          C76   1.538       .  S
C75         C146   1.441       .  S
C76          C80   1.534       .  S
C76          C78   1.536       .  S
C76          H82   1.112       .  S
C77          H83   1.086       .  S
C77          C78   1.364       .  D
C78         C171   1.444       .  S
C79          H84   1.083       .  S
C79          C80   1.362       .  D
C80         C174   1.440       .  S
C85          C86   1.544       .  S
C85          C91   1.535       .  S
C85          C89   1.542       .  S
C85         C126   1.526       .  S
C86          H93   1.083       .  S
C86          C87   1.362       .  D
C87          C88   1.534       .  S
C87         C160   1.441       .  S
C88          C92   1.538       .  S
C88          C90   1.535       .  S
C88          H94   1.112       .  S
C89          H95   1.086       .  S
C89          C90   1.364       .  D
C90         C157   1.442       .  S
C91          H96   1.087       .  S
C91          C92   1.361       .  D
C92         C145   1.441       .  S
O97        Ni105   1.912       .  S
O97         C107   1.281       .  A
O98        Ni105   1.915       .  S
O98         C108   1.281       .  A
O99        Ni105   1.916       .  S
O99         C109   1.281       .  A
O100       Ni105   1.912       .  S
O100        C110   1.281       .  A
O101       Ni106   1.918       .  S
O101        C110   1.281       .  A
O102       Ni106   1.915       .  S
O102        C109   1.282       .  A
O103       Ni106   1.917       .  S
O103        C108   1.282       .  A
O104       Ni106   1.918       .  S
O104        C107   1.282       .  A
Ni105      Ni106   2.387       .  S
C107        C151   1.480       .  S
C108        C181   1.480       .  S
C109        C129   1.480       .  S
C110        C203   1.479       .  S
O111       Ni119   1.914   1_565  S
O111       C1033   1.281   1_455  A
O112       Ni347   1.915   1_554  S
O112        C122   1.281       .  A
O113       Ni347   1.916   1_564  S
O113        C123   1.281       .  A
O114       Ni119   1.914       .  S
O114       C1036   1.282   1_455  A
O115       Ni120   1.918       .  S
O115        C124   1.282       .  A
O116       Ni348   1.918   1_564  S
O116        C579   1.282       .  A
O117       Ni348   1.918   1_554  S
O117        C578   1.282       .  A
O118       Ni120   1.919   1_565  S
O118        C121   1.282       .  A
Ni119       O340   1.915       .  S
Ni119       O341   1.916   1_545  S
Ni119     Ni1032   2.386   1_455  S
Ni120       O344   1.918   1_545  S
Ni120       O345   1.918       .  S
Ni120      Ni575   2.386       .  S
C121        O567   1.281       .  A
C121        C191   1.481       .  S
C122       O1029   1.282   1_455  A
C122        C162   1.481       .  S
C123       O1028   1.282   1_455  A
C123        C217   1.482       .  S
C124        O570   1.282       .  A
C124        C136   1.481       .  S
C125        C126   1.410       .  A
C125        C130   1.395       .  A
C125        H131   1.077       .  S
C126        C127   1.408       .  A
C127        C128   1.398       .  A
C127        H132   1.083       .  S
C128        C129   1.404       .  A
C128        H133   1.083       .  S
C129        C130   1.403       .  A
C130        H134   1.083       .  S
C135        C136   1.403       .  A
C135        C140   1.396       .  A
C135        H141   1.083       .  S
C136        C137   1.404       .  A
C137        C138   1.398       .  A
C137        H142   1.083       .  S
C138        C139   1.409       .  A
C138        H143   1.083       .  S
C139        C140   1.410       .  A
C140        H144   1.077       .  S
C145        C146   1.205       .  T
C147        C148   1.409       .  A
C147        C152   1.398       .  A
C147        H153   1.083       .  S
C148        C149   1.410       .  A
C149        C150   1.396       .  A
C149        H154   1.077       .  S
C150        C151   1.403       .  A
C150        H155   1.083       .  S
C151        C152   1.404       .  A
C152        H156   1.083       .  S
C157        C842   1.206       .  T
C158       C1297   1.206   1_454  T
C159        C388   1.205   1_554  T
C160        C387   1.205       .  T
C161        C162   1.403   1_655  A
C161        C166   1.397   1_655  A
C161       H1079   1.083       .  S
C162        C163   1.405       .  A
C163        C164   1.397       .  A
C163        H168   1.083       .  S
C164        C165   1.408       .  A
C164        H169   1.083       .  S
C165        C166   1.411       .  A
C166       H1082   1.078   1_455  S
H167        C617   1.083       .  S
H170        C622   1.078       .  S
C171        C172   1.207       .  T
C173       C1086   1.205   1_455  T
C174        C629   1.205       .  T
C175        C176   1.205       .  T
C177        C178   1.412       .  A
C177        C182   1.397       .  A
C177        H183   1.076       .  S
C178        C179   1.408       .  A
C179        C180   1.397       .  A
C179        H184   1.083       .  S
C180        C181   1.404       .  A
C180        H185   1.083       .  S
C181        C182   1.403       .  A
C182        H186   1.083       .  S
C187        C188   1.408       .  A
C187        C192   1.397       .  A
C187        H193   1.083       .  S
C188        C189   1.410       .  A
C189        C190   1.397       .  A
C189        H194   1.077       .  S
C190        C191   1.404       .  A
C190        H651   1.083       .  S
C191        C192   1.404       .  A
C192        H196   1.083       .  S
H195       C1102   1.083   1_455  S
C197        C198   1.206       .  T
C199        C200   1.411       .  A
C199        C204   1.395       .  A
C199        H205   1.076       .  S
C200        C201   1.409       .  A
C201        C202   1.399       .  A
C201        H206   1.083       .  S
C202        C203   1.404       .  A
C202        H207   1.083       .  S
C203        C204   1.402       .  A
C204        H208   1.083       .  S
C209       C1350   1.207   1_454  T
C210        C893   1.207       .  T
C211        C440   1.205       .  T
C212        C439   1.205   1_554  T
C213        C214   1.412       .  A
C213        C218   1.397   1_455  A
C213        H219   1.077   1_455  S
C214        C215   1.408       .  A
C215        C216   1.398       .  A
C215        H220   1.083       .  S
C216        C217   1.404       .  A
C216        H221   1.083       .  S
C217        C218   1.403   1_455  A
C218        H222   1.083       .  S
C223        C224   1.208       .  T
C225        C682   1.205       .  T
C226       C1137   1.205   1_455  T
C227        C228   1.206       .  T
C229        C230   1.544       .  S
C229        C235   1.536       .  S
C229        C233   1.543       .  S
C229        C442   1.529       .  S
C230        H237   1.082   1_455  S
C230        C231   1.362       .  D
C231        C232   1.534       .  S
C231        C454   1.441       .  S
C232        C236   1.538       .  S
C232        C234   1.536       .  S
C232        H238   1.112       .  S
C233        H239   1.086       .  S
C233        C234   1.365       .  D
C234        C451   1.445       .  S
C235        H240   1.087       .  S
C235        C236   1.362       .  D
C236        C455   1.442       .  S
C241        C242   1.536       .  S
C241        C247   1.545       .  S
C241        C245   1.541       .  S
C241        C428   1.527       .  S
C242        H249   1.087       .  S
C242        C243   1.361       .  D
C243        C244   1.538       .  S
C243        C456   1.442       .  S
C244        C248   1.534       .  S
C244        C246   1.536       .  S
C244        H250   1.112       .  S
C245        H251   1.087       .  S
C245        C246   1.365       .  D
C246        C437   1.444       .  S
C247        H252   1.082       .  S
C247        C248   1.362       .  D
C248        C440   1.441       .  S
C253        C254   1.544       .  S
C253        C259   1.535       .  S
C253        C257   1.542       .  S
C253        C416   1.527       .  S
C254        H261   1.083       .  S
C254        C255   1.363       .  D
C255        C256   1.535       .  S
C255        C453   1.442       .  S
C256        C260   1.539       .  S
C256        C258   1.537       .  S
C256        H262   1.112       .  S
C257        H263   1.086       .  S
C257        C258   1.364       .  D
C258        C452   1.445       .  S
C259        H264   1.087       .  S
C259        C260   1.361       .  D
C260        C425   1.442       .  S
C265        C266   1.536       .  S
C265        C271   1.544       .  S
C265        C269   1.542       .  S
C265        C406   1.528       .  S
C266        H273   1.087       .  S
C266        C267   1.361       .  D
C267        C268   1.539       .  S
C267        C426   1.442       .  S
C268        C272   1.534       .  S
C268        C270   1.536       .  S
C268        H274   1.112       .  S
C269        H275   1.087       .  S
C269        C270   1.364       .  D
C270        C438   1.444       .  S
C271        H276   1.082       .  S
C271        C272   1.362       .  D
C272        C439   1.441       .  S
C277        C278   1.535       .  S
C277        C283   1.543       .  S
C277        C281   1.543       .  S
C277        C393   1.527       .  S
C278        H285   1.087       .  S
C278        C279   1.361       .  D
C279        C280   1.538       .  S
C279        C404   1.441       .  S
C280        C284   1.534       .  S
C280        C282   1.536       .  S
C280        H286   1.112       .  S
C281        H287   1.086       .  S
C281        C282   1.365       .  D
C282        C400   1.444       .  S
C283        H288   1.084   1_455  S
C283        C284   1.362       .  D
C284        C401   1.440       .  S
C289        C290   1.545       .  S
C289        C295   1.535       .  S
C289        C293   1.541       .  S
C289        C376   1.526       .  S
C290        H297   1.083       .  S
C290        C291   1.362       .  D
C291        C292   1.534       .  S
C291        C387   1.441       .  S
C292        C296   1.538       .  S
C292        C294   1.535       .  S
C292        H298   1.112       .  S
C293        H299   1.087       .  S
C293        C294   1.364       .  D
C294        C386   1.442       .  S
C295        H300   1.087       .  S
C295        C296   1.361       .  D
C296        C403   1.441       .  S
C301        C302   1.535       .  S
C301        C307   1.544       .  S
C301        C305   1.542       .  S
C301        C367   1.526       .  S
C302        H309   1.087       .  S
C302        C303   1.361       .  D
C303        C304   1.538       .  S
C303        C374   1.441       .  S
C304        C308   1.534       .  S
C304        C306   1.536       .  S
C304        H310   1.112       .  S
C305        H311   1.086       .  S
C305        C306   1.364       .  D
C306        C399   1.444       .  S
C307        H312   1.083       .  S
C307        C308   1.362       .  D
C308        C402   1.440       .  S
C313        C314   1.544       .  S
C313        C319   1.535       .  S
C313        C317   1.542       .  S
C313        C354   1.526       .  S
C314        H321   1.083       .  S
C314        C315   1.362       .  D
C315        C316   1.534       .  S
C315        C388   1.441       .  S
C316        C320   1.538       .  S
C316        C318   1.535       .  S
C316        H322   1.112       .  S
C317        H323   1.086       .  S
C317        C318   1.364       .  D
C318        C385   1.442       .  S
C319        H324   1.087       .  S
C319        C320   1.361       .  D
C320        C373   1.441       .  S
O325       Ni333   1.912       .  S
O325        C335   1.281       .  A
O326       Ni333   1.915       .  S
O326        C336   1.281       .  A
O327       Ni333   1.916       .  S
O327        C337   1.281       .  A
O328       Ni333   1.912       .  S
O328        C338   1.281       .  A
O329       Ni334   1.918       .  S
O329        C338   1.281       .  A
O330       Ni334   1.915       .  S
O330        C337   1.282       .  A
O331       Ni334   1.917       .  S
O331        C336   1.282       .  A
O332       Ni334   1.918       .  S
O332        C335   1.282       .  A
Ni333      Ni334   2.387       .  S
C335        C379   1.480       .  S
C336        C409   1.480       .  S
C337        C357   1.480       .  S
C338        C431   1.479       .  S
O339       Ni347   1.914   1_565  S
O339       C1261   1.281   1_455  A
O340        C350   1.281       .  A
O341        C351   1.281       .  A
O342       Ni347   1.914       .  S
O342       C1264   1.282   1_455  A
O343       Ni348   1.918       .  S
O343        C352   1.282       .  A
O344        C807   1.282       .  A
O345        C806   1.282       .  A
O346       Ni348   1.919   1_565  S
O346        C349   1.282       .  A
Ni347     Ni1260   2.386   1_455  S
Ni348      Ni803   2.386       .  S
C349        O795   1.281       .  A
C349        C419   1.481       .  S
C350       O1257   1.282   1_455  A
C350        C390   1.481       .  S
C351       O1256   1.282   1_455  A
C351        C445   1.482       .  S
C352        O798   1.282       .  A
C352        C364   1.481       .  S
C353        C354   1.410       .  A
C353        C358   1.395       .  A
C353        H359   1.077       .  S
C354        C355   1.408       .  A
C355        C356   1.398       .  A
C355        H360   1.083       .  S
C356        C357   1.404       .  A
C356        H361   1.083       .  S
C357        C358   1.403       .  A
C358        H362   1.083       .  S
C363        C364   1.403       .  A
C363        C368   1.396       .  A
C363        H369   1.083       .  S
C364        C365   1.404       .  A
C365        C366   1.398       .  A
C365        H370   1.083       .  S
C366        C367   1.409       .  A
C366        H371   1.083       .  S
C367        C368   1.410       .  A
C368        H372   1.077       .  S
C373        C374   1.205       .  T
C375        C376   1.409       .  A
C375        C380   1.398       .  A
C375        H381   1.083       .  S
C376        C377   1.410       .  A
C377        C378   1.396       .  A
C377        H382   1.077       .  S
C378        C379   1.403       .  A
C378        H383   1.083       .  S
C379        C380   1.404       .  A
C380        H384   1.083       .  S
C385        C614   1.206   1_556  T
C386       C1069   1.206   1_455  T
C389        C390   1.403   1_655  A
C389        C394   1.397   1_655  A
C389       H1307   1.083       .  S
C390        C391   1.405       .  A
C391        C392   1.397       .  A
C391        H396   1.083       .  S
C392        C393   1.408       .  A
C392        H397   1.083       .  S
C393        C394   1.411       .  A
C394       H1310   1.078   1_455  S
H395        C845   1.083       .  S
H398        C850   1.078       .  S
C399        C400   1.207       .  T
C401       C1314   1.205   1_455  T
C402        C857   1.205       .  T
C403        C404   1.205       .  T
C405        C406   1.412       .  A
C405        C410   1.397       .  A
C405        H411   1.076       .  S
C406        C407   1.408       .  A
C407        C408   1.397       .  A
C407        H412   1.083       .  S
C408        C409   1.404       .  A
C408        H413   1.083       .  S
C409        C410   1.403       .  A
C410        H414   1.083       .  S
C415        C416   1.408       .  A
C415        C420   1.397       .  A
C415        H421   1.083       .  S
C416        C417   1.410       .  A
C417        C418   1.397       .  A
C417        H422   1.077       .  S
C418        C419   1.404       .  A
C418        H879   1.083       .  S
C419        C420   1.404       .  A
C420        H424   1.083       .  S
H423       C1330   1.083   1_455  S
C425        C426   1.206       .  T
C427        C428   1.411       .  A
C427        C432   1.395       .  A
C427        H433   1.076       .  S
C428        C429   1.409       .  A
C429        C430   1.399       .  A
C429        H434   1.083       .  S
C430        C431   1.404       .  A
C430        H435   1.083       .  S
C431        C432   1.402       .  A
C432        H436   1.083       .  S
C437       C1122   1.207   1_455  T
C438        C665   1.207   1_556  T
C441        C442   1.412       .  A
C441        C446   1.397   1_455  A
C441        H447   1.077   1_455  S
C442        C443   1.408       .  A
C443        C444   1.398       .  A
C443        H448   1.083       .  S
C444        C445   1.404       .  A
C444        H449   1.083       .  S
C445        C446   1.403   1_455  A
C446        H450   1.083       .  S
C451        C452   1.208       .  T
C453        C910   1.205       .  T
C454       C1365   1.205   1_455  T
C455        C456   1.206       .  T
C457        C458   1.544       .  S
C457        C463   1.536       .  S
C457        C461   1.543       .  S
C457        C670   1.529       .  S
C458        H465   1.082       .  S
C458        C459   1.362       .  D
C459        C460   1.534       .  S
C459        C682   1.441       .  S
C460        C464   1.538       .  S
C460        C462   1.536       .  S
C460        H466   1.112       .  S
C461        H467   1.086       .  S
C461        C462   1.365       .  D
C462        C679   1.445       .  S
C463        H468   1.087       .  S
C463        C464   1.362       .  D
C464        C683   1.442       .  S
C469        C470   1.536       .  S
C469        C475   1.545       .  S
C469        C473   1.541       .  S
C469        C656   1.527       .  S
C470        H477   1.087       .  S
C470        C471   1.361       .  D
C471        C472   1.538       .  S
C471        C684   1.442       .  S
C472        C476   1.534       .  S
C472        C474   1.536       .  S
C472        H478   1.112       .  S
C473        H479   1.087       .  S
C473        C474   1.365       .  D
C474        C665   1.444       .  S
C475        H480   1.082       .  S
C475        C476   1.362       .  D
C476        C668   1.441       .  S
C481        C482   1.544       .  S
C481        C487   1.535       .  S
C481        C485   1.542       .  S
C481        C644   1.527       .  S
C482        H489   1.083       .  S
C482        C483   1.363       .  D
C483        C484   1.535       .  S
C483        C681   1.442       .  S
C484        C488   1.539       .  S
C484        C486   1.537       .  S
C484        H490   1.112       .  S
C485        H491   1.086       .  S
C485        C486   1.364       .  D
C486        C680   1.445       .  S
C487        H492   1.087       .  S
C487        C488   1.361       .  D
C488        C653   1.442       .  S
C493        C494   1.536       .  S
C493        C499   1.544       .  S
C493        C497   1.542       .  S
C493        C634   1.528       .  S
C494        H501   1.087       .  S
C494        C495   1.361       .  D
C495        C496   1.539       .  S
C495        C654   1.442       .  S
C496        C500   1.534       .  S
C496        C498   1.536       .  S
C496        H502   1.112       .  S
C497        H503   1.087       .  S
C497        C498   1.364       .  D
C498        C666   1.444       .  S
C499        H504   1.082       .  S
C499        C500   1.362       .  D
C500        C667   1.441       .  S
C505        C506   1.535       .  S
C505        C511   1.543       .  S
C505        C509   1.543       .  S
C505        C621   1.527       .  S
C506        H513   1.087       .  S
C506        C507   1.361       .  D
C507        C508   1.538       .  S
C507        C632   1.441       .  S
C508        C512   1.534       .  S
C508        C510   1.536       .  S
C508        H514   1.112       .  S
C509        H515   1.086       .  S
C509        C510   1.365       .  D
C510        C628   1.444       .  S
C511        H516   1.084       .  S
C511        C512   1.362       .  D
C512        C629   1.440       .  S
C517        C518   1.545       .  S
C517        C523   1.535       .  S
C517        C521   1.541       .  S
C517        C604   1.526       .  S
C518        H525   1.083       .  S
C518        C519   1.362       .  D
C519        C520   1.534       .  S
C519        C615   1.441       .  S
C520        C524   1.538       .  S
C520        C522   1.535       .  S
C520        H526   1.112       .  S
C521        H527   1.087       .  S
C521        C522   1.364       .  D
C522        C614   1.442       .  S
C523        H528   1.087       .  S
C523        C524   1.361       .  D
C524        C631   1.441       .  S
C529        C530   1.535       .  S
C529        C535   1.544       .  S
C529        C533   1.542       .  S
C529        C595   1.526       .  S
C530        H537   1.087       .  S
C530        C531   1.361       .  D
C531        C532   1.538       .  S
C531        C602   1.441       .  S
C532        C536   1.534       .  S
C532        C534   1.536       .  S
C532        H538   1.112       .  S
C533        H539   1.086       .  S
C533        C534   1.364       .  D
C534        C627   1.444       .  S
C535        H540   1.083       .  S
C535        C536   1.362       .  D
C536        C630   1.440       .  S
C541        C542   1.544       .  S
C541        C547   1.535       .  S
C541        C545   1.542       .  S
C541        C582   1.526       .  S
C542        H549   1.083       .  S
C542        C543   1.362       .  D
C543        C544   1.534       .  S
C543        C616   1.441       .  S
C544        C548   1.538       .  S
C544        C546   1.535       .  S
C544        H550   1.112       .  S
C545        H551   1.086       .  S
C545        C546   1.364       .  D
C546        C613   1.442       .  S
C547        H552   1.087       .  S
C547        C548   1.361       .  D
C548        C601   1.441       .  S
O553       Ni561   1.912       .  S
O553        C563   1.281       .  A
O554       Ni561   1.915       .  S
O554        C564   1.281       .  A
O555       Ni561   1.916       .  S
O555        C565   1.281       .  A
O556       Ni561   1.912       .  S
O556        C566   1.281       .  A
O557       Ni562   1.918       .  S
O557        C566   1.281       .  A
O558       Ni562   1.915       .  S
O558        C565   1.282       .  A
O559       Ni562   1.917       .  S
O559        C564   1.282       .  A
O560       Ni562   1.918       .  S
O560        C563   1.282       .  A
Ni561      Ni562   2.387       .  S
C563        C607   1.480       .  S
C564        C637   1.480       .  S
C565        C585   1.480       .  S
C566        C659   1.479       .  S
O567       Ni575   1.914   1_565  S
O568       Ni803   1.915   1_554  S
O568        C578   1.281       .  A
O569       Ni803   1.916   1_564  S
O569        C579   1.281       .  A
O570       Ni575   1.914       .  S
O571       Ni576   1.918       .  S
O571        C580   1.282       .  A
O572       Ni804   1.918   1_564  S
O572       C1035   1.282       .  A
O573       Ni804   1.918   1_554  S
O573       C1034   1.282       .  A
O574       Ni576   1.919   1_565  S
O574        C577   1.282       .  A
Ni575       O796   1.915       .  S
Ni575       O797   1.916   1_545  S
Ni576       O800   1.918   1_545  S
Ni576       O801   1.918       .  S
Ni576     Ni1031   2.386       .  S
C577       O1023   1.281       .  A
C577        C647   1.481       .  S
C578        C618   1.481       .  S
C579        C673   1.482       .  S
C580       O1026   1.282       .  A
C580        C592   1.481       .  S
C581        C582   1.410       .  A
C581        C586   1.395       .  A
C581        H587   1.077       .  S
C582        C583   1.408       .  A
C583        C584   1.398       .  A
C583        H588   1.083       .  S
C584        C585   1.404       .  A
C584        H589   1.083       .  S
C585        C586   1.403       .  A
C586        H590   1.083       .  S
C591        C592   1.403       .  A
C591        C596   1.396       .  A
C591        H597   1.083       .  S
C592        C593   1.404       .  A
C593        C594   1.398       .  A
C593        H598   1.083       .  S
C594        C595   1.409       .  A
C594        H599   1.083       .  S
C595        C596   1.410       .  A
C596        H600   1.077       .  S
C601        C602   1.205       .  T
C603        C604   1.409       .  A
C603        C608   1.398       .  A
C603        H609   1.083       .  S
C604        C605   1.410       .  A
C605        C606   1.396       .  A
C605        H610   1.077       .  S
C606        C607   1.403       .  A
C606        H611   1.083       .  S
C607        C608   1.404       .  A
C608        H612   1.083       .  S
C613       C1298   1.206       .  T
C615        C844   1.205   1_554  T
C616        C843   1.205       .  T
C617        C618   1.403       .  A
C617        C622   1.397       .  A
C618        C619   1.405       .  A
C619        C620   1.397       .  A
C619        H624   1.083       .  S
C620        C621   1.408       .  A
C620        H625   1.083       .  S
C621        C622   1.411       .  A
H623       C1073   1.083       .  S
H626       C1078   1.078       .  S
C627        C628   1.207       .  T
C630       C1085   1.205       .  T
C631        C632   1.205       .  T
C633        C634   1.412       .  A
C633        C638   1.397       .  A
C633        H639   1.076       .  S
C634        C635   1.408       .  A
C635        C636   1.397       .  A
C635        H640   1.083       .  S
C636        C637   1.404       .  A
C636        H641   1.083       .  S
C637        C638   1.403       .  A
C638        H642   1.083       .  S
C643        C644   1.408       .  A
C643        C648   1.397       .  A
C643        H649   1.083       .  S
C644        C645   1.410       .  A
C645        C646   1.397       .  A
C645        H650   1.077       .  S
C646        C647   1.404       .  A
C646       H1107   1.083       .  S
C647        C648   1.404       .  A
C648        H652   1.083       .  S
C653        C654   1.206       .  T
C655        C656   1.411       .  A
C655        C660   1.395       .  A
C655        H661   1.076       .  S
C656        C657   1.409       .  A
C657        C658   1.399       .  A
C657        H662   1.083       .  S
C658        C659   1.404       .  A
C658        H663   1.083       .  S
C659        C660   1.402       .  A
C660        H664   1.083       .  S
C666       C1349   1.207       .  T
C667        C896   1.205       .  T
C668        C895   1.205   1_554  T
C669        C670   1.412       .  A
C669        C674   1.397       .  A
C669        H675   1.077       .  S
C670        C671   1.408       .  A
C671        C672   1.398       .  A
C671        H676   1.083       .  S
C672        C673   1.404       .  A
C672        H677   1.083       .  S
C673        C674   1.403       .  A
C674        H678   1.083       .  S
C679        C680   1.208       .  T
C681       C1138   1.205       .  T
C683        C684   1.206       .  T
C685        C686   1.544       .  S
C685        C691   1.536       .  S
C685        C689   1.543       .  S
C685        C898   1.529       .  S
C686        H693   1.082       .  S
C686        C687   1.362       .  D
C687        C688   1.534       .  S
C687        C910   1.441       .  S
C688        C692   1.538       .  S
C688        C690   1.536       .  S
C688        H694   1.112       .  S
C689        H695   1.086       .  S
C689        C690   1.365       .  D
C690        C907   1.445       .  S
C691        H696   1.087       .  S
C691        C692   1.362       .  D
C692        C911   1.442       .  S
C697        C698   1.536       .  S
C697        C703   1.545       .  S
C697        C701   1.541       .  S
C697        C884   1.527       .  S
C698        H705   1.087       .  S
C698        C699   1.361       .  D
C699        C700   1.538       .  S
C699        C912   1.442       .  S
C700        C704   1.534       .  S
C700        C702   1.536       .  S
C700        H706   1.112       .  S
C701        H707   1.087       .  S
C701        C702   1.365       .  D
C702        C893   1.444       .  S
C703        H708   1.082       .  S
C703        C704   1.362       .  D
C704        C896   1.441       .  S
C709        C710   1.544       .  S
C709        C715   1.535       .  S
C709        C713   1.542       .  S
C709        C872   1.527       .  S
C710        H717   1.083       .  S
C710        C711   1.363       .  D
C711        C712   1.535       .  S
C711        C909   1.442       .  S
C712        C716   1.539       .  S
C712        C714   1.537       .  S
C712        H718   1.112       .  S
C713        H719   1.086       .  S
C713        C714   1.364       .  D
C714        C908   1.445       .  S
C715        H720   1.087       .  S
C715        C716   1.361       .  D
C716        C881   1.442       .  S
C721        C722   1.536       .  S
C721        C727   1.544       .  S
C721        C725   1.542       .  S
C721        C862   1.528       .  S
C722        H729   1.087       .  S
C722        C723   1.361       .  D
C723        C724   1.539       .  S
C723        C882   1.442       .  S
C724        C728   1.534       .  S
C724        C726   1.536       .  S
C724        H730   1.112       .  S
C725        H731   1.087       .  S
C725        C726   1.364       .  D
C726        C894   1.444       .  S
C727        H732   1.082       .  S
C727        C728   1.362       .  D
C728        C895   1.441       .  S
C733        C734   1.535       .  S
C733        C739   1.543       .  S
C733        C737   1.543       .  S
C733        C849   1.527       .  S
C734        H741   1.087       .  S
C734        C735   1.361       .  D
C735        C736   1.538       .  S
C735        C860   1.441       .  S
C736        C740   1.534       .  S
C736        C738   1.536       .  S
C736        H742   1.112       .  S
C737        H743   1.086       .  S
C737        C738   1.365       .  D
C738        C856   1.444       .  S
C739        H744   1.084       .  S
C739        C740   1.362       .  D
C740        C857   1.440       .  S
C745        C746   1.545       .  S
C745        C751   1.535       .  S
C745        C749   1.541       .  S
C745        C832   1.526       .  S
C746        H753   1.083       .  S
C746        C747   1.362       .  D
C747        C748   1.534       .  S
C747        C843   1.441       .  S
C748        C752   1.538       .  S
C748        C750   1.535       .  S
C748        H754   1.112       .  S
C749        H755   1.087       .  S
C749        C750   1.364       .  D
C750        C842   1.442       .  S
C751        H756   1.087       .  S
C751        C752   1.361       .  D
C752        C859   1.441       .  S
C757        C758   1.535       .  S
C757        C763   1.544       .  S
C757        C761   1.542       .  S
C757        C823   1.526       .  S
C758        H765   1.087       .  S
C758        C759   1.361       .  D
C759        C760   1.538       .  S
C759        C830   1.441       .  S
C760        C764   1.534       .  S
C760        C762   1.536       .  S
C760        H766   1.112       .  S
C761        H767   1.086       .  S
C761        C762   1.364       .  D
C762        C855   1.444       .  S
C763        H768   1.083       .  S
C763        C764   1.362       .  D
C764        C858   1.440       .  S
C769        C770   1.544       .  S
C769        C775   1.535       .  S
C769        C773   1.542       .  S
C769        C810   1.526       .  S
C770        H777   1.083       .  S
C770        C771   1.362       .  D
C771        C772   1.534       .  S
C771        C844   1.441       .  S
C772        C776   1.538       .  S
C772        C774   1.535       .  S
C772        H778   1.112       .  S
C773        H779   1.086       .  S
C773        C774   1.364       .  D
C774        C841   1.442       .  S
C775        H780   1.087       .  S
C775        C776   1.361       .  D
C776        C829   1.441       .  S
O781       Ni789   1.912       .  S
O781        C791   1.281       .  A
O782       Ni789   1.915       .  S
O782        C792   1.281       .  A
O783       Ni789   1.916       .  S
O783        C793   1.281       .  A
O784       Ni789   1.912       .  S
O784        C794   1.281       .  A
O785       Ni790   1.918       .  S
O785        C794   1.281       .  A
O786       Ni790   1.915       .  S
O786        C793   1.282       .  A
O787       Ni790   1.917       .  S
O787        C792   1.282       .  A
O788       Ni790   1.918       .  S
O788        C791   1.282       .  A
Ni789      Ni790   2.387       .  S
C791        C835   1.480       .  S
C792        C865   1.480       .  S
C793        C813   1.480       .  S
C794        C887   1.479       .  S
O795       Ni803   1.914   1_565  S
O796        C806   1.281       .  A
O797        C807   1.281       .  A
O798       Ni803   1.914       .  S
O799       Ni804   1.918       .  S
O799        C808   1.282       .  A
O800       C1263   1.282       .  A
O801       C1262   1.282       .  A
O802       Ni804   1.919   1_565  S
O802        C805   1.282       .  A
Ni804     Ni1259   2.386       .  S
C805       O1251   1.281       .  A
C805        C875   1.481       .  S
C806        C846   1.481       .  S
C807        C901   1.482       .  S
C808       O1254   1.282       .  A
C808        C820   1.481       .  S
C809        C810   1.410       .  A
C809        C814   1.395       .  A
C809        H815   1.077       .  S
C810        C811   1.408       .  A
C811        C812   1.398       .  A
C811        H816   1.083       .  S
C812        C813   1.404       .  A
C812        H817   1.083       .  S
C813        C814   1.403       .  A
C814        H818   1.083       .  S
C819        C820   1.403       .  A
C819        C824   1.396       .  A
C819        H825   1.083       .  S
C820        C821   1.404       .  A
C821        C822   1.398       .  A
C821        H826   1.083       .  S
C822        C823   1.409       .  A
C822        H827   1.083       .  S
C823        C824   1.410       .  A
C824        H828   1.077       .  S
C829        C830   1.205       .  T
C831        C832   1.409       .  A
C831        C836   1.398       .  A
C831        H837   1.083       .  S
C832        C833   1.410       .  A
C833        C834   1.396       .  A
C833        H838   1.077       .  S
C834        C835   1.403       .  A
C834        H839   1.083       .  S
C835        C836   1.404       .  A
C836        H840   1.083       .  S
C841       C1070   1.206   1_556  T
C845        C846   1.403       .  A
C845        C850   1.397       .  A
C846        C847   1.405       .  A
C847        C848   1.397       .  A
C847        H852   1.083       .  S
C848        C849   1.408       .  A
C848        H853   1.083       .  S
C849        C850   1.411       .  A
H851       C1301   1.083       .  S
H854       C1306   1.078       .  S
C855        C856   1.207       .  T
C858       C1313   1.205       .  T
C859        C860   1.205       .  T
C861        C862   1.412       .  A
C861        C866   1.397       .  A
C861        H867   1.076       .  S
C862        C863   1.408       .  A
C863        C864   1.397       .  A
C863        H868   1.083       .  S
C864        C865   1.404       .  A
C864        H869   1.083       .  S
C865        C866   1.403       .  A
C866        H870   1.083       .  S
C871        C872   1.408       .  A
C871        C876   1.397       .  A
C871        H877   1.083       .  S
C872        C873   1.410       .  A
C873        C874   1.397       .  A
C873        H878   1.077       .  S
C874        C875   1.404       .  A
C874       H1335   1.083       .  S
C875        C876   1.404       .  A
C876        H880   1.083       .  S
C881        C882   1.206       .  T
C883        C884   1.411       .  A
C883        C888   1.395       .  A
C883        H889   1.076       .  S
C884        C885   1.409       .  A
C885        C886   1.399       .  A
C885        H890   1.083       .  S
C886        C887   1.404       .  A
C886        H891   1.083       .  S
C887        C888   1.402       .  A
C888        H892   1.083       .  S
C894       C1121   1.207   1_556  T
C897        C898   1.412       .  A
C897        C902   1.397       .  A
C897        H903   1.077       .  S
C898        C899   1.408       .  A
C899        C900   1.398       .  A
C899        H904   1.083       .  S
C900        C901   1.404       .  A
C900        H905   1.083       .  S
C901        C902   1.403       .  A
C902        H906   1.083       .  S
C907        C908   1.208       .  T
C909       C1366   1.205       .  T
C911        C912   1.206       .  T
C913        C914   1.544       .  S
C913        C919   1.536       .  S
C913        C917   1.543       .  S
C913       C1126   1.529       .  S
C914        H921   1.082       .  S
C914        C915   1.362       .  D
C915        C916   1.534       .  S
C915       C1138   1.441       .  S
C916        C920   1.538       .  S
C916        C918   1.536       .  S
C916        H922   1.112       .  S
C917        H923   1.086       .  S
C917        C918   1.365       .  D
C918       C1135   1.445       .  S
C919        H924   1.087       .  S
C919        C920   1.362       .  D
C920       C1139   1.442       .  S
C925        C926   1.536       .  S
C925        C931   1.545       .  S
C925        C929   1.541       .  S
C925       C1112   1.527       .  S
C926        H933   1.087       .  S
C926        C927   1.361       .  D
C927        C928   1.538       .  S
C927       C1140   1.442       .  S
C928        C932   1.534       .  S
C928        C930   1.536       .  S
C928        H934   1.112       .  S
C929        H935   1.087       .  S
C929        C930   1.365       .  D
C930       C1121   1.444       .  S
C931        H936   1.082       .  S
C931        C932   1.362       .  D
C932       C1124   1.441       .  S
C937        C938   1.544       .  S
C937        C943   1.535       .  S
C937        C941   1.542       .  S
C937       C1100   1.527       .  S
C938        H945   1.083   1_655  S
C938        C939   1.363       .  D
C939        C940   1.535       .  S
C939       C1137   1.442       .  S
C940        C944   1.539       .  S
C940        C942   1.537       .  S
C940        H946   1.112       .  S
C941        H947   1.086       .  S
C941        C942   1.364       .  D
C942       C1136   1.445       .  S
C943        H948   1.087       .  S
C943        C944   1.361       .  D
C944       C1109   1.442       .  S
C949        C950   1.536       .  S
C949        C955   1.544       .  S
C949        C953   1.542       .  S
C949       C1090   1.528       .  S
C950        H957   1.087       .  S
C950        C951   1.361       .  D
C951        C952   1.539       .  S
C951       C1110   1.442       .  S
C952        C956   1.534       .  S
C952        C954   1.536       .  S
C952        H958   1.112       .  S
C953        H959   1.087       .  S
C953        C954   1.364       .  D
C954       C1122   1.444       .  S
C955        H960   1.082       .  S
C955        C956   1.362       .  D
C956       C1123   1.441       .  S
C961        C962   1.535       .  S
C961        C967   1.543       .  S
C961        C965   1.543       .  S
C961       C1077   1.527       .  S
C962        H969   1.087       .  S
C962        C963   1.361       .  D
C963        C964   1.538       .  S
C963       C1088   1.441       .  S
C964        C968   1.534       .  S
C964        C966   1.536       .  S
C964        H970   1.112       .  S
C965        H971   1.086       .  S
C965        C966   1.365       .  D
C966       C1084   1.444       .  S
C967        H972   1.084       .  S
C967        C968   1.362       .  D
C968       C1085   1.440       .  S
C973        C974   1.545       .  S
C973        C979   1.535       .  S
C973        C977   1.541       .  S
C973       C1060   1.526       .  S
C974        H981   1.083       .  S
C974        C975   1.362       .  D
C975        C976   1.534       .  S
C975       C1071   1.441       .  S
C976        C980   1.538       .  S
C976        C978   1.535       .  S
C976        H982   1.112       .  S
C977        H983   1.087       .  S
C977        C978   1.364       .  D
C978       C1070   1.442       .  S
C979        H984   1.087       .  S
C979        C980   1.361       .  D
C980       C1087   1.441       .  S
C985        C986   1.535       .  S
C985        C991   1.544       .  S
C985        C989   1.542       .  S
C985       C1051   1.526       .  S
C986        H993   1.087       .  S
C986        C987   1.361       .  D
C987        C988   1.538       .  S
C987       C1058   1.441       .  S
C988        C992   1.534       .  S
C988        C990   1.536       .  S
C988        H994   1.112       .  S
C989        H995   1.086       .  S
C989        C990   1.364       .  D
C990       C1083   1.444       .  S
C991        H996   1.083   1_655  S
C991        C992   1.362       .  D
C992       C1086   1.440       .  S
C997        C998   1.544       .  S
C997       C1003   1.535       .  S
C997       C1001   1.542       .  S
C997       C1038   1.526       .  S
C998       H1005   1.083       .  S
C998        C999   1.362       .  D
C999       C1000   1.534       .  S
C999       C1072   1.441       .  S
C1000      C1004   1.538       .  S
C1000      C1002   1.535       .  S
C1000      H1006   1.112       .  S
C1001      H1007   1.086       .  S
C1001      C1002   1.364       .  D
C1002      C1069   1.442       .  S
C1003      H1008   1.087       .  S
C1003      C1004   1.361       .  D
C1004      C1057   1.441       .  S
O1009     Ni1017   1.912       .  S
O1009      C1019   1.281       .  A
O1010     Ni1017   1.915       .  S
O1010      C1020   1.281       .  A
O1011     Ni1017   1.916       .  S
O1011      C1021   1.281       .  A
O1012     Ni1017   1.912       .  S
O1012      C1022   1.281       .  A
O1013     Ni1018   1.918       .  S
O1013      C1022   1.281       .  A
O1014     Ni1018   1.915       .  S
O1014      C1021   1.282       .  A
O1015     Ni1018   1.917       .  S
O1015      C1020   1.282       .  A
O1016     Ni1018   1.918       .  S
O1016      C1019   1.282       .  A
Ni1017    Ni1018   2.387       .  S
C1019      C1063   1.480       .  S
C1020      C1093   1.480       .  S
C1021      C1041   1.480       .  S
C1022      C1115   1.479       .  S
O1023     Ni1031   1.914   1_565  S
O1024     Ni1259   1.915   1_554  S
O1024      C1034   1.281       .  A
O1025     Ni1259   1.916   1_564  S
O1025      C1035   1.281       .  A
O1026     Ni1031   1.914       .  S
O1027     Ni1032   1.918       .  S
O1027      C1036   1.282       .  A
O1028     Ni1260   1.918   1_564  S
O1029     Ni1260   1.918   1_554  S
O1030     Ni1032   1.919   1_565  S
O1030      C1033   1.282       .  A
Ni1031     O1252   1.915       .  S
Ni1031     O1253   1.916   1_545  S
Ni1032     O1256   1.918   1_545  S
Ni1032     O1257   1.918       .  S
C1033      C1103   1.481       .  S
C1034      C1074   1.481       .  S
C1035      C1129   1.482       .  S
C1036      C1048   1.481       .  S
C1037      C1038   1.410       .  A
C1037      C1042   1.395       .  A
C1037      H1043   1.077       .  S
C1038      C1039   1.408       .  A
C1039      C1040   1.398       .  A
C1039      H1044   1.083       .  S
C1040      C1041   1.404       .  A
C1040      H1045   1.083       .  S
C1041      C1042   1.403       .  A
C1042      H1046   1.083       .  S
C1047      C1048   1.403       .  A
C1047      C1052   1.396       .  A
C1047      H1053   1.083   1_655  S
C1048      C1049   1.404       .  A
C1049      C1050   1.398       .  A
C1049      H1054   1.083       .  S
C1050      C1051   1.409       .  A
C1050      H1055   1.083       .  S
C1051      C1052   1.410       .  A
C1052      H1056   1.077   1_655  S
C1057      C1058   1.205       .  T
C1059      C1060   1.409       .  A
C1059      C1064   1.398       .  A
C1059      H1065   1.083       .  S
C1060      C1061   1.410       .  A
C1061      C1062   1.396       .  A
C1061      H1066   1.077       .  S
C1062      C1063   1.403       .  A
C1062      H1067   1.083       .  S
C1063      C1064   1.404       .  A
C1064      H1068   1.083       .  S
C1071      C1300   1.205   1_554  T
C1072      C1299   1.205       .  T
C1073      C1074   1.403       .  A
C1073      C1078   1.397       .  A
C1074      C1075   1.405       .  A
C1075      C1076   1.397       .  A
C1075      H1080   1.083       .  S
C1076      C1077   1.408       .  A
C1076      H1081   1.083       .  S
C1077      C1078   1.411       .  A
C1083      C1084   1.207       .  T
C1087      C1088   1.205       .  T
C1089      C1090   1.412       .  A
C1089      C1094   1.397       .  A
C1089      H1095   1.076       .  S
C1090      C1091   1.408       .  A
C1091      C1092   1.397       .  A
C1091      H1096   1.083       .  S
C1092      C1093   1.404       .  A
C1092      H1097   1.083       .  S
C1093      C1094   1.403       .  A
C1094      H1098   1.083       .  S
C1099      C1100   1.408       .  A
C1099      C1104   1.397       .  A
C1099      H1105   1.083       .  S
C1100      C1101   1.410       .  A
C1101      C1102   1.397       .  A
C1101      H1106   1.077   1_655  S
C1102      C1103   1.404       .  A
C1103      C1104   1.404       .  A
C1104      H1108   1.083       .  S
C1109      C1110   1.206       .  T
C1111      C1112   1.411       .  A
C1111      C1116   1.395       .  A
C1111      H1117   1.076       .  S
C1112      C1113   1.409       .  A
C1113      C1114   1.399       .  A
C1113      H1118   1.083       .  S
C1114      C1115   1.404       .  A
C1114      H1119   1.083       .  S
C1115      C1116   1.402       .  A
C1116      H1120   1.083       .  S
C1123      C1352   1.205       .  T
C1124      C1351   1.205   1_554  T
C1125      C1126   1.412       .  A
C1125      C1130   1.397       .  A
C1125      H1131   1.077       .  S
C1126      C1127   1.408       .  A
C1127      C1128   1.398       .  A
C1127      H1132   1.083       .  S
C1128      C1129   1.404       .  A
C1128      H1133   1.083       .  S
C1129      C1130   1.403       .  A
C1130      H1134   1.083       .  S
C1135      C1136   1.208       .  T
C1139      C1140   1.206       .  T
C1141      C1142   1.544       .  S
C1141      C1147   1.536       .  S
C1141      C1145   1.543       .  S
C1141      C1354   1.529       .  S
C1142      H1149   1.082       .  S
C1142      C1143   1.362       .  D
C1143      C1144   1.534       .  S
C1143      C1366   1.441       .  S
C1144      C1148   1.538       .  S
C1144      C1146   1.536       .  S
C1144      H1150   1.112       .  S
C1145      H1151   1.086       .  S
C1145      C1146   1.365       .  D
C1146      C1363   1.445       .  S
C1147      H1152   1.087       .  S
C1147      C1148   1.362       .  D
C1148      C1367   1.442       .  S
C1153      C1154   1.536       .  S
C1153      C1159   1.545       .  S
C1153      C1157   1.541       .  S
C1153      C1340   1.527       .  S
C1154      H1161   1.087       .  S
C1154      C1155   1.361       .  D
C1155      C1156   1.538       .  S
C1155      C1368   1.442       .  S
C1156      C1160   1.534       .  S
C1156      C1158   1.536       .  S
C1156      H1162   1.112       .  S
C1157      H1163   1.087       .  S
C1157      C1158   1.365       .  D
C1158      C1349   1.444       .  S
C1159      H1164   1.082       .  S
C1159      C1160   1.362       .  D
C1160      C1352   1.441       .  S
C1165      C1166   1.544       .  S
C1165      C1171   1.535       .  S
C1165      C1169   1.542       .  S
C1165      C1328   1.527       .  S
C1166      H1173   1.083   1_655  S
C1166      C1167   1.363       .  D
C1167      C1168   1.535       .  S
C1167      C1365   1.442       .  S
C1168      C1172   1.539       .  S
C1168      C1170   1.537       .  S
C1168      H1174   1.112       .  S
C1169      H1175   1.086       .  S
C1169      C1170   1.364       .  D
C1170      C1364   1.445       .  S
C1171      H1176   1.087       .  S
C1171      C1172   1.361       .  D
C1172      C1337   1.442       .  S
C1177      C1178   1.536       .  S
C1177      C1183   1.544       .  S
C1177      C1181   1.542       .  S
C1177      C1318   1.528       .  S
C1178      H1185   1.087       .  S
C1178      C1179   1.361       .  D
C1179      C1180   1.539       .  S
C1179      C1338   1.442       .  S
C1180      C1184   1.534       .  S
C1180      C1182   1.536       .  S
C1180      H1186   1.112       .  S
C1181      H1187   1.087       .  S
C1181      C1182   1.364       .  D
C1182      C1350   1.444       .  S
C1183      H1188   1.082       .  S
C1183      C1184   1.362       .  D
C1184      C1351   1.441       .  S
C1189      C1190   1.535       .  S
C1189      C1195   1.543       .  S
C1189      C1193   1.543       .  S
C1189      C1305   1.527       .  S
C1190      H1197   1.087       .  S
C1190      C1191   1.361       .  D
C1191      C1192   1.538       .  S
C1191      C1316   1.441       .  S
C1192      C1196   1.534       .  S
C1192      C1194   1.536       .  S
C1192      H1198   1.112       .  S
C1193      H1199   1.086       .  S
C1193      C1194   1.365       .  D
C1194      C1312   1.444       .  S
C1195      H1200   1.084       .  S
C1195      C1196   1.362       .  D
C1196      C1313   1.440       .  S
C1201      C1202   1.545       .  S
C1201      C1207   1.535       .  S
C1201      C1205   1.541       .  S
C1201      C1288   1.526       .  S
C1202      H1209   1.083       .  S
C1202      C1203   1.362       .  D
C1203      C1204   1.534       .  S
C1203      C1299   1.441       .  S
C1204      C1208   1.538       .  S
C1204      C1206   1.535       .  S
C1204      H1210   1.112       .  S
C1205      H1211   1.087       .  S
C1205      C1206   1.364       .  D
C1206      C1298   1.442       .  S
C1207      H1212   1.087       .  S
C1207      C1208   1.361       .  D
C1208      C1315   1.441       .  S
C1213      C1214   1.535       .  S
C1213      C1219   1.544       .  S
C1213      C1217   1.542       .  S
C1213      C1279   1.526       .  S
C1214      H1221   1.087       .  S
C1214      C1215   1.361       .  D
C1215      C1216   1.538       .  S
C1215      C1286   1.441       .  S
C1216      C1220   1.534       .  S
C1216      C1218   1.536       .  S
C1216      H1222   1.112       .  S
C1217      H1223   1.086       .  S
C1217      C1218   1.364       .  D
C1218      C1311   1.444       .  S
C1219      H1224   1.083   1_655  S
C1219      C1220   1.362       .  D
C1220      C1314   1.440       .  S
C1225      C1226   1.544       .  S
C1225      C1231   1.535       .  S
C1225      C1229   1.542       .  S
C1225      C1266   1.526       .  S
C1226      H1233   1.083       .  S
C1226      C1227   1.362       .  D
C1227      C1228   1.534       .  S
C1227      C1300   1.441       .  S
C1228      C1232   1.538       .  S
C1228      C1230   1.535       .  S
C1228      H1234   1.112       .  S
C1229      H1235   1.086       .  S
C1229      C1230   1.364       .  D
C1230      C1297   1.442       .  S
C1231      H1236   1.087       .  S
C1231      C1232   1.361       .  D
C1232      C1285   1.441       .  S
O1237     Ni1245   1.912       .  S
O1237      C1247   1.281       .  A
O1238     Ni1245   1.915       .  S
O1238      C1248   1.281       .  A
O1239     Ni1245   1.916       .  S
O1239      C1249   1.281       .  A
O1240     Ni1245   1.912       .  S
O1240      C1250   1.281       .  A
O1241     Ni1246   1.918       .  S
O1241      C1250   1.281       .  A
O1242     Ni1246   1.915       .  S
O1242      C1249   1.282       .  A
O1243     Ni1246   1.917       .  S
O1243      C1248   1.282       .  A
O1244     Ni1246   1.918       .  S
O1244      C1247   1.282       .  A
Ni1245    Ni1246   2.387       .  S
C1247      C1291   1.480       .  S
C1248      C1321   1.480       .  S
C1249      C1269   1.480       .  S
C1250      C1343   1.479       .  S
O1251     Ni1259   1.914   1_565  S
O1252      C1262   1.281       .  A
O1253      C1263   1.281       .  A
O1254     Ni1259   1.914       .  S
O1255     Ni1260   1.918       .  S
O1255      C1264   1.282       .  A
O1258     Ni1260   1.919   1_565  S
O1258      C1261   1.282       .  A
C1261      C1331   1.481       .  S
C1262      C1302   1.481       .  S
C1263      C1357   1.482       .  S
C1264      C1276   1.481       .  S
C1265      C1266   1.410       .  A
C1265      C1270   1.395       .  A
C1265      H1271   1.077       .  S
C1266      C1267   1.408       .  A
C1267      C1268   1.398       .  A
C1267      H1272   1.083       .  S
C1268      C1269   1.404       .  A
C1268      H1273   1.083       .  S
C1269      C1270   1.403       .  A
C1270      H1274   1.083       .  S
C1275      C1276   1.403       .  A
C1275      C1280   1.396       .  A
C1275      H1281   1.083   1_655  S
C1276      C1277   1.404       .  A
C1277      C1278   1.398       .  A
C1277      H1282   1.083       .  S
C1278      C1279   1.409       .  A
C1278      H1283   1.083       .  S
C1279      C1280   1.410       .  A
C1280      H1284   1.077   1_655  S
C1285      C1286   1.205       .  T
C1287      C1288   1.409       .  A
C1287      C1292   1.398       .  A
C1287      H1293   1.083       .  S
C1288      C1289   1.410       .  A
C1289      C1290   1.396       .  A
C1289      H1294   1.077       .  S
C1290      C1291   1.403       .  A
C1290      H1295   1.083       .  S
C1291      C1292   1.404       .  A
C1292      H1296   1.083       .  S
C1301      C1302   1.403       .  A
C1301      C1306   1.397       .  A
C1302      C1303   1.405       .  A
C1303      C1304   1.397       .  A
C1303      H1308   1.083       .  S
C1304      C1305   1.408       .  A
C1304      H1309   1.083       .  S
C1305      C1306   1.411       .  A
C1311      C1312   1.207       .  T
C1315      C1316   1.205       .  T
C1317      C1318   1.412       .  A
C1317      C1322   1.397       .  A
C1317      H1323   1.076       .  S
C1318      C1319   1.408       .  A
C1319      C1320   1.397       .  A
C1319      H1324   1.083       .  S
C1320      C1321   1.404       .  A
C1320      H1325   1.083       .  S
C1321      C1322   1.403       .  A
C1322      H1326   1.083       .  S
C1327      C1328   1.408       .  A
C1327      C1332   1.397       .  A
C1327      H1333   1.083       .  S
C1328      C1329   1.410       .  A
C1329      C1330   1.397       .  A
C1329      H1334   1.077   1_655  S
C1330      C1331   1.404       .  A
C1331      C1332   1.404       .  A
C1332      H1336   1.083       .  S
C1337      C1338   1.206       .  T
C1339      C1340   1.411       .  A
C1339      C1344   1.395       .  A
C1339      H1345   1.076       .  S
C1340      C1341   1.409       .  A
C1341      C1342   1.399       .  A
C1341      H1346   1.083       .  S
C1342      C1343   1.404       .  A
C1342      H1347   1.083       .  S
C1343      C1344   1.402       .  A
C1344      H1348   1.083       .  S
C1353      C1354   1.412       .  A
C1353      C1358   1.397       .  A
C1353      H1359   1.077       .  S
C1354      C1355   1.408       .  A
C1355      C1356   1.398       .  A
C1355      H1360   1.083       .  S
C1356      C1357   1.404       .  A
C1356      H1361   1.083       .  S
C1357      C1358   1.403       .  A
C1358      H1362   1.083       .  S
C1363      C1364   1.208       .  T
C1367      C1368   1.206       .  T
