geometry optimzed in LAMMPS
_audit_creation_date              2020-11-30 
_audit_creation_method            'lammps2cif' 
_symmetry_space_group_name_H-M    'P1' 
_symmetry_Int_Tables_number       1 
_symmetry_cell_setting            triclinic 
loop_ 
_symmetry_equiv_pos_as_xyz 
  x,y,z 
_cell_length_a                    30.827020380257334 
_cell_length_b                    33.27404705403575 
_cell_length_c                    56.6233585408283 
_cell_angle_alpha                 90.15110816412839 
_cell_angle_beta                  89.85517430291223 
_cell_angle_gamma                 90.2517402805927 
loop_ 
_atom_site_label 
_atom_site_type_symbol 
_atom_site_fract_x 
_atom_site_fract_y 
_atom_site_fract_z 
_atom_site_charge 
In1        In  0.62618340  0.06238707  0.30563615     1.36870
C2          C  0.63150820  0.12396607  0.33573187     0.77670
O3          O  0.60659518  0.09840825  0.27418980    -0.60780
O4          O  0.55709333  0.06801908  0.29332119    -0.51690
C5          C  0.68566877  0.03235684  0.27647393     0.70330
O6          O  0.69275057  0.06273779  0.28939810    -0.46550
C7          C  0.62289525  0.00066117  0.33531396     0.75040
O8          O  0.66136999  0.11590331  0.32118556    -0.58410
O9          O  0.59321738  0.00735861  0.32051002    -0.48500
O10         O  0.59919851  0.10077499  0.33441763    -0.54840
C11         C  0.56673288  0.09067148  0.27624137     0.85220
O12         O  0.64791624  0.01793282  0.27847183    -0.56730
O13         O  0.65382382  0.02553795  0.33458822    -0.60020
In14       In  0.62932199  0.31319233  0.43532238     1.36870
C15         C  0.63310527  0.25243324  0.40497641     0.77670
O16         O  0.60565565  0.26812474  0.46150341    -0.60780
O17         O  0.56577842  0.31862813  0.45453242    -0.51690
C18         C  0.68702203  0.34298961  0.46551638     0.70330
O19         O  0.69135468  0.30878643  0.45602277    -0.46550
C20         C  0.62563300  0.37186777  0.40389847     0.75040
O21         O  0.66673305  0.26650616  0.41476154    -0.58410
O22         O  0.59228476  0.35959052  0.41478279    -0.48500
O23         O  0.59832226  0.26969571  0.41065077    -0.54840
C24         C  0.57041628  0.28599119  0.46560910     0.85220
O25         O  0.65268847  0.36104756  0.45997457    -0.56730
O26         O  0.66011292  0.35365785  0.40895146    -0.60020
In27       In  0.87810410  0.18769274  0.68633971     1.36870
C28         C  0.87555095  0.12794810  0.65516367     0.77670
O29         O  0.84917483  0.22816215  0.65949567    -0.60780
O30         O  0.91471053  0.23855250  0.66905795    -0.51690
C31         C  0.81845251  0.21593052  0.71592433     0.70330
O32         O  0.81012740  0.18909471  0.70076125    -0.46550
C33         C  0.93673441  0.15743409  0.71567619     0.75040
O34         O  0.84500111  0.13415652  0.66963464    -0.58410
O35         O  0.94315760  0.18931668  0.70407307    -0.48500
O36         O  0.90674499  0.15228210  0.65701006    -0.54840
C37         C  0.88302538  0.24886786  0.65637967     0.85220
O38         O  0.85738101  0.22770556  0.71600145    -0.56730
O39         O  0.89988481  0.14179606  0.71245190    -0.60020
In40       In  0.87893035  0.43742447  0.55676803     1.36870
C41         C  0.87451628  0.49638102  0.58808019     0.77670
O42         O  0.84915448  0.39963906  0.58458124    -0.60780
O43         O  0.91498686  0.38842278  0.57594092    -0.51690
C44         C  0.81824175  0.40909792  0.52774416     0.70330
O45         O  0.81633839  0.44397304  0.53655290    -0.46550
C46         C  0.93856035  0.46531427  0.52695863     0.75040
O47         O  0.84146125  0.48391613  0.57705337    -0.58410
O48         O  0.94023212  0.43017735  0.53529342    -0.48500
O49         O  0.90941832  0.47867150  0.58295184    -0.54840
C50         C  0.88231630  0.37866330  0.58826260     0.85220
O51         O  0.85194925  0.38993897  0.53303112    -0.56730
O52         O  0.90611896  0.48546290  0.53342160    -0.60020
In53       In  0.37540476  0.43718158  0.05666767     1.36870
C54         C  0.37120159  0.49715537  0.08724440     0.77670
O55         O  0.34465181  0.39873996  0.08412936    -0.60780
O56         O  0.41053231  0.38745035  0.07529580    -0.51690
C57         C  0.31513250  0.40883902  0.02768784     0.70330
O58         O  0.30830360  0.43845075  0.04110404    -0.46550
C59         C  0.43646760  0.46547059  0.02779761     0.75040
O60         O  0.34567672  0.49433367  0.06988916    -0.58410
O61         O  0.43859461  0.43097570  0.03693563    -0.48500
O62         O  0.39861259  0.46931113  0.08892890    -0.54840
C63         C  0.37818589  0.37821470  0.08800086     0.85220
O64         O  0.35268286  0.39433571  0.02878824    -0.56730
O65         O  0.40332500  0.48517435  0.03353643    -0.60020
In66       In  0.37857523  0.18737927  0.18521871     1.36870
C67         C  0.38137205  0.24904503  0.15594922     0.77670
O68         O  0.39699899  0.15548067  0.15195206    -0.60780
O69         O  0.34914076  0.12827867  0.17362021    -0.51690
C70         C  0.43901888  0.16054159  0.21460019     0.70330
O71         O  0.44781695  0.18454718  0.19804322    -0.46550
C72         C  0.31930898  0.21797673  0.21408061     0.75040
O73         O  0.41481141  0.23648784  0.16646553    -0.58410
O74         O  0.31160730  0.18834037  0.20066321    -0.48500
O75         O  0.34668429  0.23057233  0.16084194    -0.54840
C76         C  0.37170665  0.12628072  0.15505696     0.85220
O77         O  0.39964936  0.15085667  0.21613829    -0.56730
O78         O  0.35759811  0.23148598  0.21276261    -0.60020
In79       In  0.37738355  0.43698787  0.68575555     1.37350
C80         C  0.37532601  0.37594258  0.65559571     0.77670
O81         O  0.34869505  0.47448616  0.65748384    -0.60780
O82         O  0.41278510  0.48855636  0.66823946    -0.51690
C83         C  0.31708892  0.46510792  0.71519178     0.70330
O84         O  0.31181700  0.43358231  0.70305540    -0.46550
C85         C  0.43548632  0.40816541  0.71580809     0.75040
O86         O  0.34159877  0.38861402  0.66583409    -0.58410
O87         O  0.44261030  0.43890113  0.70326313    -0.48500
O88         O  0.40963606  0.39463996  0.66076519    -0.54840
C89         C  0.38120882  0.49708483  0.65500743     0.85220
O90         O  0.35385471  0.48136839  0.71266666    -0.56730
O91         O  0.39804775  0.39331181  0.71334467    -0.60020
In92       In  0.37973734  0.18672334  0.55598636     1.36870
C93         C  0.37559741  0.24709872  0.58672550     0.77670
O94         O  0.35003275  0.14643214  0.58290143    -0.60780
O95         O  0.41632982  0.13757436  0.57455040    -0.51690
C96         C  0.31914761  0.15817647  0.52680785     0.70330
O97         O  0.31265338  0.18742763  0.54057612    -0.46550
C98         C  0.43941988  0.21549275  0.52648143     0.75040
O99         O  0.34565339  0.23966242  0.57215220    -0.58410
O100        O  0.44336193  0.18212837  0.53679882    -0.48500
O101        O  0.40742762  0.22352008  0.58532338    -0.54840
C102        C  0.38405130  0.12666014  0.58675963     0.85220
O103        O  0.35716488  0.14442489  0.52763796    -0.56730
O104        O  0.40457373  0.23362082  0.53106904    -0.60020
In105      In  0.62557602  0.06159366  0.93557877     1.36870
C106        C  0.63068862  0.00178494  0.90469128     0.77670
O107        O  0.59788632  0.01310720  0.95839636    -0.60780
O108        O  0.56428943  0.06852082  0.95685348    -0.51690
C109        C  0.68665614  0.08872614  0.96473757     0.70330
O110        O  0.69390373  0.06218684  0.94924958    -0.46550
C111        C  0.62097022  0.12255639  0.90559278     0.75040
O112        O  0.65728125  0.00577583  0.92148950    -0.58410
O113        O  0.58750776  0.10689881  0.91472588    -0.48500
O114        O  0.60210639  0.02869169  0.90370583    -0.54840
C115        C  0.56585774  0.03343306  0.96524858     0.85220
O116        O  0.64777321  0.10031703  0.96557657    -0.56730
O117        O  0.65628286  0.10730624  0.91213990    -0.60020
In118      In  0.62689693  0.31222623  0.80654458     1.36870
C119        C  0.63058502  0.37315693  0.83645917     0.77670
O120        O  0.60518996  0.35724335  0.77996669    -0.60780
O121        O  0.56126303  0.31079259  0.78940178    -0.51690
C122        C  0.68609311  0.28379353  0.77672479     0.70330
O123        O  0.69436339  0.31118459  0.79152660    -0.46550
C124        C  0.62380648  0.25245230  0.83765902     0.75040
O125        O  0.66134282  0.36523975  0.82247611    -0.58410
O126        O  0.59248452  0.26004126  0.82403606    -0.48500
O127        O  0.59806821  0.35023228  0.83501798    -0.54840
C128        C  0.56802299  0.34201523  0.77722442     0.85220
O129        O  0.64739867  0.27138445  0.77712453    -0.56730
O130        O  0.65624270  0.27501276  0.83477772    -0.60020
In131      In  0.12692818  0.06188223  0.80722094     1.36870
C132        C  0.13086987  0.12191637  0.83823620     0.77670
O133        O  0.10576245  0.10690447  0.78046437    -0.60780
O134        O  0.06347944  0.05813478  0.78791451    -0.51690
C135        C  0.18687697  0.03480386  0.77735414     0.70330
O136        O  0.19258316  0.06557482  0.79013238    -0.46550
C137        C  0.12058371  0.00074941  0.83700066     0.75040
O138        O  0.16425960  0.10839049  0.82805888    -0.58410
O139        O  0.08761023  0.01635082  0.82766774    -0.48500
O140        O  0.09605051  0.10465520  0.83250354    -0.54840
C141        C  0.06962446  0.09031107  0.77652682     0.85220
O142        O  0.14980549  0.01888215  0.77945730    -0.56730
O143        O  0.15621923  0.01633040  0.83111004    -0.60020
In144      In  0.12651221  0.31349343  0.93641010     1.36870
C145        C  0.12848678  0.25431273  0.90492540     0.77670
O146        O  0.10083228  0.26571692  0.96037470    -0.60780
O147        O  0.06329078  0.31862095  0.95621324    -0.51690
C148        C  0.18724806  0.34118900  0.96541375     0.70330
O149        O  0.19032432  0.30735987  0.95547959    -0.46550
C150        C  0.12163508  0.37312693  0.90560136     0.75040
O151        O  0.16084250  0.26316354  0.91766189    -0.58410
O152        O  0.09212644  0.36625866  0.92060282    -0.48500
O153        O  0.09567355  0.27607069  0.90845588    -0.54840
C154        C  0.06664601  0.28435727  0.96547730     0.85220
O155        O  0.15315911  0.36020233  0.96085719    -0.56730
O156        O  0.15331367  0.34929161  0.90643436    -0.60020
In157      In  0.87785297  0.43671946  0.18524214     1.36870
C158        C  0.87332235  0.37595507  0.15491044     0.77670
O159        O  0.84841196  0.48100897  0.16065464    -0.60780
O160        O  0.91686015  0.48223556  0.16452476    -0.51690
C161        C  0.81949906  0.46511458  0.21563130     0.70330
O162        O  0.81284801  0.43403437  0.20321780    -0.46550
C163        C  0.93519955  0.40797198  0.21576442     0.75040
O164        O  0.83980724  0.39098990  0.16418055    -0.58410
O165        O  0.94190890  0.43961537  0.20392972    -0.48500
O166        O  0.90846366  0.39218162  0.16104497    -0.54840
C167        C  0.88383610  0.49700575  0.15474045     0.85220
O168        O  0.85651602  0.48072361  0.21277123    -0.56730
O169        O  0.89849767  0.39209350  0.21234101    -0.60020
In170      In  0.87772615  0.18629707  0.05592835     1.36870
C171        C  0.87386497  0.24705462  0.08626436     0.77670
O172        O  0.84822439  0.14775325  0.08370692    -0.60780
O173        O  0.91365078  0.13647007  0.07437819    -0.51690
C174        C  0.81673977  0.15854200  0.02674884     0.70330
O175        O  0.80989752  0.18648025  0.04136895    -0.46550
C176        C  0.93814356  0.21542252  0.02723643     0.75040
O177        O  0.84495330  0.24083812  0.07086701    -0.58410
O178        O  0.93965343  0.17998135  0.03507054    -0.48500
O179        O  0.90454710  0.22203393  0.08590704    -0.54840
C180        C  0.88173558  0.12721072  0.08734621     0.85220
O181        O  0.85519454  0.14588872  0.02668168    -0.56730
O182        O  0.90553252  0.23532992  0.03365573    -0.60020
In183      In  0.12791254  0.06113223  0.43525276     1.36870
C184        C  0.13391816  0.00163664  0.40439548     0.77670
O185        O  0.09619730  0.01076275  0.45495568    -0.60780
O186        O  0.06666721  0.06817681  0.45677438    -0.51690
C187        C  0.18895483  0.08744285  0.46496652     0.70330
O188        O  0.19619183  0.06114321  0.44936581    -0.46550
C189        C  0.12391464  0.12214856  0.40513315     0.75040
O190        O  0.15717997  0.00324122  0.42273264    -0.58410
O191        O  0.09074770  0.10884791  0.41578785    -0.48500
O192        O  0.10839137  0.03077170  0.40173750    -0.54840
C193        C  0.06558516  0.03171906  0.46288481     0.85220
O194        O  0.15012047  0.09904839  0.46568939    -0.56730
O195        O  0.15865668  0.10438435  0.41032540    -0.60020
In196      In  0.12796473  0.31209148  0.30606766     1.36870
C197        C  0.12649996  0.25150482  0.33644601     0.77670
O198        O  0.14948001  0.26862115  0.27824521    -0.60780
O199        O  0.19489375  0.31209502  0.29020863    -0.51690
C200        C  0.06779289  0.34127711  0.27705180     0.70330
O201        O  0.06124557  0.31050497  0.28963204    -0.46550
C202        C  0.13278716  0.37245497  0.33656983     0.75040
O203        O  0.09378558  0.26070321  0.32414137    -0.58410
O204        O  0.15833676  0.36939513  0.31921224    -0.48500
O205        O  0.15936701  0.27343000  0.33294242    -0.54840
C206        C  0.18756905  0.28238207  0.27685284     0.85220
O207        O  0.10507603  0.35626472  0.27935126    -0.56730
O208        O  0.10513699  0.34464832  0.33832789    -0.60020
C209        C  0.12623748  0.21814606  0.35385126    -0.00070
C210        C  0.08638107  0.20120601  0.36083815    -0.11940
C211        C  0.08444782  0.17027831  0.37761894     0.02170
C212        C  0.12310654  0.15551263  0.38774712    -0.00160
C213        C  0.16289854  0.17229294  0.38060407    -0.11880
C214        C  0.16487915  0.20315314  0.36392773     0.02050
H215        H  0.05646247  0.21229658  0.35326160     0.15030
H216        H  0.19292850  0.16121984  0.38807813     0.15030
C217        C  0.20729289  0.21801516  0.35728943     0.36680
C218        C  0.04241849  0.15390785  0.38363432     0.36590
N219        N  0.24135369  0.22977435  0.35202799    -0.43660
N220        N  0.00867120  0.14082219  0.38838693    -0.43660
C221        C  0.13481096  0.40581384  0.35363732    -0.00070
C222        C  0.13427937  0.39693821  0.37783588    -0.11940
C223        C  0.13524045  0.42773105  0.39472167     0.02170
C224        C  0.13567928  0.46819615  0.38735213    -0.00160
C225        C  0.13548926  0.47704500  0.36314289    -0.11880
C226        C  0.13559177  0.44623731  0.34626776     0.02050
H227        H  0.13319244  0.36583243  0.38354172     0.15030
H228        H  0.13526010  0.00814422  0.35741233     0.15030
C229        C  0.13426355  0.45682839  0.32156914     0.36680
C230        C  0.13356104  0.41707156  0.41941400     0.36590
N231        N  0.13303349  0.46534482  0.30178169    -0.43660
N232        N  0.13207302  0.40849320  0.43919442    -0.43660
C233        C  0.96826901  0.39058664  0.23186010    -0.00070
C234        C  0.00963781  0.40836543  0.23262184    -0.11940
C235        C  0.04255827  0.39279319  0.24688171     0.02170
C236        C  0.03440298  0.35860470  0.26112669    -0.00160
C237        C  0.99305347  0.34076166  0.26034428    -0.11880
C238        C  0.96020976  0.35618305  0.24592328     0.02050
H239        H  0.01659950  0.43449150  0.22181333     0.15030
H240        H  0.98619823  0.31453559  0.27108422     0.15030
C241        C  0.91873240  0.33584262  0.24607438     0.36680
C242        C  0.08435221  0.41257560  0.24616731     0.36590
N243        N  0.88557047  0.31939811  0.24622754    -0.43660
N244        N  0.11780011  0.42847535  0.24546464    -0.43660
C245        C  0.87230534  0.28044807  0.10367781    -0.00070
C246        C  0.90104215  0.27938524  0.12290427    -0.11940
C247        C  0.90132625  0.30988041  0.13992476     0.02170
C248        C  0.87209269  0.34216064  0.13807582    -0.00160
C249        C  0.84297440  0.34324797  0.11913497    -0.11880
C250        C  0.84323065  0.31311566  0.10177330     0.02050
H251        H  0.92341590  0.25451118  0.12476050     0.15030
H252        H  0.82099543  0.36847073  0.11746187     0.15030
C253        C  0.81472002  0.31766356  0.08178329     0.36680
C254        C  0.93103492  0.30671769  0.15953121     0.36590
N255        N  0.79206730  0.32163820  0.06569722    -0.43660
N256        N  0.95471577  0.30416481  0.17528031    -0.43660
C257        C  0.88555696  0.03079550  0.13795876    -0.00070
C258        C  0.85330867  0.06020772  0.13955851    -0.11940
C259        C  0.85203285  0.09224566  0.12367761     0.02170
C260        C  0.88318595  0.09488588  0.10531751    -0.00160
C261        C  0.91583912  0.06557435  0.10390789    -0.11880
C262        C  0.91720209  0.03362905  0.12001381     0.02050
H263        H  0.82910867  0.05831196  0.15346823     0.15030
H264        H  0.93976827  0.06704620  0.08986561     0.15030
C265        C  0.94965126  0.50290210  0.11688605     0.36680
C266        C  0.81893869  0.12232708  0.12715791     0.36590
N267        N  0.97542962  0.47808100  0.11431323    -0.43660
N268        N  0.79250486  0.14645810  0.13004112    -0.43660
C269        C  0.97185582  0.23274450  0.01186988    -0.00070
C270        C  0.98222270  0.21336544  0.99060617    -0.11940
C271        C  0.01249115  0.23030256  0.97501535     0.02170
C272        C  0.03315361  0.26688493  0.98088138    -0.00160
C273        C  0.02286691  0.28622175  0.00214981    -0.11880
C274        C  0.99256476  0.26932878  0.01772329     0.02050
H275        H  0.96586212  0.18553057  0.98592562     0.15030
H276        H  0.03922068  0.31406794  0.00681179     0.15030
C277        C  0.98474593  0.28895041  0.04010985     0.36680
C278        C  0.02032205  0.21077853  0.95259593     0.36590
N279        N  0.97869965  0.30436002  0.05816056    -0.43660
N280        N  0.02635497  0.19547523  0.93451153    -0.43660
C281        C  0.11827835  0.46704628  0.85366858    -0.00070
C282        C  0.09553191  0.47186872  0.87492688    -0.11940
C283        C  0.09636755  0.44188963  0.89226607     0.02170
C284        C  0.11946727  0.40592926  0.88806827    -0.00160
C285        C  0.14173609  0.40112860  0.86657955    -0.11880
C286        C  0.14141880  0.43133444  0.84946854     0.02050
H287        H  0.07855478  0.99979796  0.87836763     0.15030
H288        H  0.15938688  0.37358967  0.86307945     0.15030
C289        C  0.16422398  0.42469842  0.82748908     0.36680
C290        C  0.07580620  0.45002606  0.91469964     0.36590
N291        N  0.18228935  0.41937510  0.80982145    -0.43660
N292        N  0.05969616  0.45683010  0.93274714    -0.43660
C293        C  0.12892152  0.22091150  0.88743810    -0.00070
C294        C  0.16467332  0.19476592  0.88684266    -0.11940
C295        C  0.16624164  0.16240259  0.87094861     0.02170
C296        C  0.13157466  0.15575045  0.85519661    -0.00160
C297        C  0.09582859  0.18164130  0.85580695    -0.11880
C298        C  0.09423165  0.21407473  0.87153708     0.02050
H299        H  0.19131694  0.19922805  0.89904905     0.15030
H300        H  0.06908516  0.17677380  0.84368970     0.15030
C301        C  0.05671296  0.23988430  0.87055647     0.36680
C302        C  0.20267285  0.13534770  0.87200167     0.36590
N303        N  0.02663645  0.26052394  0.86967348    -0.43660
N304        N  0.23170405  0.11347579  0.87291418    -0.43660
C305        C  0.78283437  0.14135443  0.01103448    -0.00070
C306        C  0.79580832  0.11645578  0.99223626    -0.11940
C307        C  0.76540992  0.09878130  0.97702706     0.02170
C308        C  0.72060526  0.10570125  0.98052776    -0.00160
C309        C  0.70764048  0.13051665  0.99937722    -0.11880
C310        C  0.73804472  0.14819986  0.01457605     0.02050
H311        H  0.83004942  0.11091479  0.98923936     0.15030
H312        H  0.67340873  0.13605908  0.00240242     0.15030
C313        C  0.72197802  0.17229629  0.03393293     0.36680
C314        C  0.78152648  0.07449134  0.95776930     0.36590
N315        N  0.70890581  0.19149177  0.04944728    -0.43660
N316        N  0.79466202  0.05512600  0.94234434    -0.43660
C317        C  0.62277389  0.21988147  0.85557187    -0.00070
C318        C  0.58819877  0.19214384  0.85546869    -0.11940
C319        C  0.58644920  0.16047473  0.87176497     0.02170
C320        C  0.61975983  0.15617924  0.88860863    -0.00160
C321        C  0.65409976  0.18389692  0.88882524    -0.11880
C322        C  0.65580415  0.21566205  0.87274806     0.02050
H323        H  0.56274778  0.19477073  0.84238805     0.15030
H324        H  0.67971314  0.18090199  0.90180678     0.15030
C325        C  0.69166521  0.24357075  0.87473153     0.36680
C326        C  0.55143292  0.13167042  0.86999468     0.36590
N327        N  0.72038278  0.26591093  0.87642916    -0.43660
N328        N  0.52351624  0.10843692  0.86851629    -0.43660
C329        C  0.63238697  0.46854642  0.88733285    -0.00070
C330        C  0.61473984  0.47488449  0.86478626    -0.11940
C331        C  0.61451505  0.44425131  0.84783207     0.02170
C332        C  0.63225722  0.40657610  0.85333564    -0.00160
C333        C  0.64977397  0.39993499  0.87576697    -0.11880
C334        C  0.64983898  0.43048034  0.89283802     0.02050
H335        H  0.60103368  0.00388978  0.86036933     0.15030
H336        H  0.66260744  0.37053714  0.88009230     0.15030
C337        C  0.66567744  0.42114934  0.91615187     0.36680
C338        C  0.59556287  0.45196177  0.82500034     0.36590
N339        N  0.67808977  0.41347675  0.93487065    -0.43660
N340        N  0.58029894  0.45817550  0.80672906    -0.43660
C341        C  0.22284803  0.10439516  0.48087187    -0.00070
C342        C  0.21076561  0.13429046  0.49718602    -0.11940
C343        C  0.24122767  0.15242263  0.51217767     0.02170
C344        C  0.28525709  0.14071913  0.51111095    -0.00160
C345        C  0.29732355  0.11069555  0.49488355    -0.11880
C346        C  0.26685850  0.09261247  0.47985411     0.02050
H347        H  0.17718873  0.14379331  0.49825296     0.15030
H348        H  0.33091632  0.10123801  0.49382766     0.15030
C349        C  0.28209906  0.06227725  0.46358951     0.36680
C350        C  0.22590931  0.18255671  0.52856305     0.36590
N351        N  0.29454913  0.03800862  0.45058754    -0.43660
N352        N  0.21342949  0.20665969  0.54166487    -0.43660
C353        C  0.22070524  0.01794993  0.76138956    -0.00070
C354        C  0.20897707  0.48690375  0.74573462    -0.11940
C355        C  0.23948179  0.46914032  0.73061912     0.02170
C356        C  0.28319789  0.48224259  0.73099514    -0.00160
C357        C  0.29491517  0.01334079  0.74660745    -0.11880
C358        C  0.26441016  0.03112153  0.76171655     0.02050
H359        H  0.17561052  0.47643559  0.74517262     0.15030
H360        H  0.32829541  0.02377502  0.74717238     0.15030
C361        C  0.27942228  0.06219171  0.77760422     0.36680
C362        C  0.22446832  0.43820719  0.71463817     0.36590
N363        N  0.29166805  0.08702353  0.79032588    -0.43660
N364        N  0.21223892  0.41349997  0.70182860    -0.43660
C365        C  0.53479641  0.35937590  0.76124596    -0.00070
C366        C  0.49492607  0.33924773  0.75872872    -0.11940
C367        C  0.46216680  0.35433878  0.74417088     0.02170
C368        C  0.46873683  0.39078194  0.73176523    -0.00160
C369        C  0.50867231  0.41082815  0.73420885    -0.11880
C370        C  0.54154209  0.39560085  0.74864175     0.02050
H371        H  0.48922455  0.31134784  0.76813132     0.15030
H372        H  0.51443404  0.43864829  0.72473547     0.15030
C373        C  0.58165976  0.41806843  0.75000497     0.36680
C374        C  0.42257862  0.33121031  0.74219520     0.36590
N375        N  0.61375061  0.43617666  0.75100130    -0.43660
N376        N  0.39096908  0.31250204  0.74063296    -0.43660
C377        C  0.37413173  0.28034143  0.60427707    -0.00070
C378        C  0.40815082  0.28351501  0.62069401    -0.11940
C379        C  0.40889894  0.31410163  0.63766185     0.02170
C380        C  0.37486836  0.34223994  0.63862514    -0.00160
C381        C  0.34051775  0.33896239  0.62255253    -0.11880
C382        C  0.34006514  0.30872996  0.60526405     0.02050
H383        H  0.43443055  0.26192762  0.62037015     0.15030
H384        H  0.31450000  0.36082246  0.62308676     0.15030
C385        C  0.30481625  0.30848428  0.58852729     0.36680
C386        C  0.44423053  0.31505737  0.65438582     0.36590
N387        N  0.27661146  0.30858406  0.57507568    -0.43660
N388        N  0.47245730  0.31574944  0.66782296    -0.43660
C389        C  0.38495222  0.09345944  0.60421075    -0.00070
C390        C  0.34513143  0.07932242  0.61304914    -0.11940
C391        C  0.34322101  0.04837763  0.62962832     0.02170
C392        C  0.38191944  0.03067779  0.63788459    -0.00160
C393        C  0.42187895  0.04507732  0.62936070    -0.11880
C394        C  0.42375605  0.07602156  0.61258392     0.02050
H395        H  0.31503123  0.09248780  0.60696446     0.15030
H396        H  0.45179465  0.03178782  0.63560884     0.15030
C397        C  0.46591636  0.08945450  0.60464535     0.36680
C398        C  0.30095877  0.03639977  0.63827345     0.36590
N399        N  0.49978571  0.10012942  0.59833303    -0.43660
N400        N  0.26706936  0.02691766  0.64518238    -0.43660
C401        C  0.22098858  0.26527555  0.26085018    -0.00070
C402        C  0.25676516  0.28921412  0.25449701    -0.11940
C403        C  0.28898637  0.27471399  0.23923492     0.02170
C404        C  0.28601209  0.23516703  0.23012163    -0.00160
C405        C  0.25027639  0.21121926  0.23650706    -0.11880
C406        C  0.21806917  0.22570499  0.25176211     0.02050
H407        H  0.25929065  0.31971785  0.26119330     0.15030
H408        H  0.24775296  0.18070467  0.22982634     0.15030
C409        C  0.18335537  0.19865310  0.25836187     0.36680
C410        C  0.32373288  0.30171609  0.23262211     0.36590
N411        N  0.15568042  0.17684351  0.26368108    -0.43660
N412        N  0.35143377  0.32348175  0.22728092    -0.43660
C413        C  0.22092561  0.35792008  0.98091763    -0.00070
C414        C  0.22732066  0.34092566  0.00324378    -0.11940
C415        C  0.25739047  0.35778541  0.01895378     0.02170
C416        C  0.28177486  0.39177589  0.01214121    -0.00160
C417        C  0.27556724  0.40862987  0.98977855    -0.11880
C418        C  0.24519330  0.39204292  0.97416459     0.02050
H419        H  0.20822535  0.31499326  0.00855314     0.15030
H420        H  0.29469348  0.43454568  0.98446956     0.15030
C421        C  0.24019437  0.40977783  0.95108163     0.36680
C422        C  0.26219366  0.34032475  0.04211918     0.36590
N423        N  0.23624534  0.42379618  0.93253186    -0.43660
N424        N  0.26595103  0.32655957  0.06074704    -0.43660
C425        C  0.53279576  0.01676823  0.98153584    -0.00070
C426        C  0.52512960  0.47510452  0.98131266    -0.11940
C427        C  0.49393637  0.45768491  0.99615889     0.02170
C428        C  0.46998488  0.48211690  0.01181857    -0.00160
C429        C  0.47767739  0.02376298  0.01208478    -0.11880
C430        C  0.50892724  0.04118620  0.99726647     0.02050
H431        H  0.54301250  0.45610469  0.96914498     0.15030
H432        H  0.45968362  0.04273523  0.02422304     0.15030
C433        C  0.51717956  0.08380008  0.99938778     0.36680
C434        C  0.48564735  0.41507326  0.99406812     0.36590
N435        N  0.52399711  0.11789806  0.00121519    -0.43660
N436        N  0.47879338  0.38097738  0.99227295    -0.43660
C437        C  0.38229007  0.28257081  0.13903125    -0.00070
C438        C  0.35044780  0.31230541  0.14085619    -0.11940
C439        C  0.34899784  0.34410961  0.12477304     0.02170
C440        C  0.37942087  0.34599775  0.10601953    -0.00160
C441        C  0.41147123  0.31619699  0.10433665    -0.11880
C442        C  0.41305721  0.28458020  0.12061290     0.02050
H443        H  0.32689139  0.31090298  0.15510598     0.15030
H444        H  0.43478866  0.31707309  0.08997502     0.15030
C445        C  0.44479091  0.25327790  0.11721664     0.36680
C446        C  0.31680892  0.37492136  0.12851710     0.36590
N447        N  0.46994696  0.22797483  0.11443901    -0.43660
N448        N  0.29116935  0.39970327  0.13161436    -0.43660
C449        C  0.36948881  0.03043510  0.10433787    -0.00070
C450        C  0.36908995  0.02150750  0.12853162    -0.11940
C451        C  0.36852052  0.05229649  0.14543312     0.02170
C452        C  0.36925096  0.09275828  0.13807664    -0.00160
C453        C  0.37029403  0.10160888  0.11385965    -0.11880
C454        C  0.36997998  0.07084693  0.09697505     0.02050
H455        H  0.36925458  0.49037915  0.13421576     0.15030
H456        H  0.37150705  0.13269649  0.10812415     0.15030
C457        C  0.37256037  0.08142876  0.07228893     0.36680
C458        C  0.36962438  0.04162139  0.17012084     0.36590
N459        N  0.37484509  0.08989780  0.05251335    -0.43660
N460        N  0.37069885  0.03303859  0.18990248    -0.43660
C461        C  0.97181276  0.48199656  0.51092917    -0.00070
C462        C  0.98255878  0.46101168  0.49024288    -0.11940
C463        C  0.01229865  0.47718153  0.47402774     0.02170
C464        C  0.03199683  0.01480467  0.47859931    -0.00160
C465        C  0.02128418  0.03568398  0.49928152    -0.11880
C466        C  0.99176216  0.01947402  0.51551212     0.02050
H467        H  0.96692068  0.43242926  0.48648787     0.15030
H468        H  0.03704280  0.06419330  0.50311269     0.15030
C469        C  0.98460528  0.04082545  0.53735861     0.36680
C470        C  0.02038456  0.45568558  0.45228238     0.36590
N471        N  0.97982209  0.05818580  0.55488296    -0.43660
N472        N  0.02654214  0.43871057  0.43473560    -0.43660
C473        C  0.78500538  0.23291676  0.73189064    -0.00070
C474        C  0.74137405  0.23172482  0.72483105    -0.11940
C475        C  0.70871664  0.24866258  0.73889201     0.02170
C476        C  0.71944738  0.26691937  0.76068527    -0.00160
C477        C  0.76306827  0.26820239  0.76771497    -0.11880
C478        C  0.79572287  0.25130205  0.75366007     0.02050
H479        H  0.73279832  0.21823160  0.70801773     0.15030
H480        H  0.77164200  0.28173759  0.78451817     0.15030
C481        C  0.83962779  0.25192862  0.76250972     0.36680
C482        C  0.66482342  0.24835205  0.73002256     0.36590
N483        N  0.87478696  0.25226216  0.76963166    -0.43660
N484        N  0.62967751  0.24832972  0.72288055    -0.43660
C485        C  0.97011309  0.13973618  0.73144016    -0.00070
C486        C  0.01115693  0.15813881  0.73260952    -0.11940
C487        C  0.04415634  0.14256069  0.74682873     0.02170
C488        C  0.03651700  0.10754097  0.76041044    -0.00160
C489        C  0.99551295  0.08906620  0.75918450    -0.11880
C490        C  0.96247944  0.10469807  0.74500475     0.02050
H491        H  0.01770501  0.18491127  0.72228290     0.15030
H492        H  0.98893438  0.06235338  0.76955681     0.15030
C493        C  0.92115040  0.08407844  0.74503057     0.36680
C494        C  0.08539427  0.16333356  0.74691199     0.36590
N495        N  0.88808248  0.06746762  0.74512737    -0.43660
N496        N  0.11836494  0.18011008  0.74691439    -0.43660
C497        C  0.88442602  0.28237643  0.63917044    -0.00070
C498        C  0.84482545  0.29730345  0.63084085    -0.11940
C499        C  0.84339096  0.32827454  0.61428395     0.02170
C500        C  0.88242073  0.34533912  0.60560724    -0.00160
C501        C  0.92214933  0.33017498  0.61370658    -0.11880
C502        C  0.92350986  0.29903241  0.63035563     0.02050
H503        H  0.81453084  0.28465260  0.63727693     0.15030
H504        H  0.95231746  0.34276732  0.60708095     0.15030
C505        C  0.96539983  0.28416406  0.63746944     0.36680
C506        C  0.80118654  0.34088168  0.60615119     0.36590
N507        N  0.99903516  0.27224291  0.64308470    -0.43660
N508        N  0.76733625  0.35084334  0.59965272    -0.43660
C509        C  0.87513571  0.09474651  0.63757890    -0.00070
C510        C  0.84000065  0.06757909  0.63729614    -0.11940
C511        C  0.83876311  0.03539911  0.62124077     0.02170
C512        C  0.87333704  0.02980422  0.60524211    -0.00160
C513        C  0.90846573  0.05655020  0.60566055    -0.11880
C514        C  0.90947276  0.08912341  0.62123151     0.02050
H515        H  0.81355785  0.07120639  0.64977390     0.15030
H516        H  0.93519003  0.05222782  0.59350774     0.15030
C517        C  0.94607763  0.11626885  0.61959350     0.36680
C518        C  0.80292281  0.00738809  0.62238262     0.36590
N519        N  0.97535191  0.13802776  0.61810736    -0.43660
N520        N  0.77437782  0.48474029  0.62335629    -0.43660
C521        C  0.47306818  0.23278859  0.51070397    -0.00070
C522        C  0.47382396  0.27460340  0.50721859    -0.11940
C523        C  0.50538402  0.29276990  0.49290226     0.02170
C524        C  0.53695163  0.26887337  0.48154491    -0.00160
C525        C  0.53622716  0.22707862  0.48504765    -0.11880
C526        C  0.50468118  0.20890602  0.49934722     0.02050
H527        H  0.45004293  0.29336472  0.51604370     0.15030
H528        H  0.55997097  0.20831475  0.47619051     0.15030
C529        C  0.50469797  0.16563064  0.50125785     0.36680
C530        C  0.50548113  0.33603542  0.49096147     0.36590
N531        N  0.50467685  0.13093701  0.50267757    -0.43660
N532        N  0.50561051  0.37072685  0.48952727    -0.43660
C533        C  0.71966004  0.36058755  0.48174920    -0.00070
C534        C  0.74514550  0.33473533  0.49539692    -0.11940
C535        C  0.77652631  0.34990505  0.51092976     0.02170
C536        C  0.78384174  0.39184218  0.51249583    -0.00160
C537        C  0.75787586  0.41774153  0.49915357    -0.11880
C538        C  0.72594353  0.40260274  0.48392398     0.02050
H539        H  0.73991760  0.30250802  0.49429152     0.15030
H540        H  0.76302426  0.44997083  0.50031571     0.15030
C541        C  0.70124962  0.43095088  0.47020621     0.36680
C542        C  0.79903666  0.32182976  0.52592140     0.36590
N543        N  0.68150820  0.45380258  0.45928334    -0.43660
N544        N  0.81671440  0.29938033  0.53811287    -0.43660
C545        C  0.53401441  0.10765799  0.26016442    -0.00070
C546        C  0.49491960  0.12199730  0.26963270    -0.11940
C547        C  0.46403775  0.14029032  0.25513738     0.02170
C548        C  0.47200418  0.14410900  0.23068442    -0.00160
C549        C  0.51107147  0.12976711  0.22120884    -0.11880
C550        C  0.54187470  0.11130796  0.23568949     0.02050
H551        H  0.48895086  0.11975962  0.28846339     0.15030
H552        H  0.51692807  0.13186960  0.20236465     0.15030
C553        C  0.58010710  0.09426097  0.22486675     0.36680
C554        C  0.42535609  0.15661053  0.26588669     0.36590
N555        N  0.61059344  0.08015599  0.21629371    -0.43660
N556        N  0.39446192  0.17003033  0.27441003    -0.43660
C557        C  0.78603084  0.48232042  0.23169435    -0.00070
C558        C  0.74326276  0.46780231  0.23016134    -0.11940
C559        C  0.71002206  0.48375395  0.24422939     0.02170
C560        C  0.71926503  0.01488138  0.26059042    -0.00160
C561        C  0.76203578  0.02940389  0.26212135    -0.11880
C562        C  0.79522711  0.01360603  0.24795548     0.02050
H563        H  0.73547833  0.44415415  0.21763091     0.15030
H564        H  0.76980016  0.05314911  0.27459277     0.15030
C565        C  0.83836553  0.02996997  0.25084449     0.36680
C566        C  0.66673464  0.46791673  0.24100757     0.36590
N567        N  0.87287518  0.04319050  0.25322070    -0.43660
N568        N  0.63207430  0.45521926  0.23832820    -0.43660
C569        C  0.63358742  0.15714193  0.35335317    -0.00070
C570        C  0.60067962  0.15921484  0.37055789    -0.11940
C571        C  0.60045270  0.18950504  0.38770175     0.02170
C572        C  0.63384338  0.21862003  0.38803222    -0.00160
C573        C  0.66721820  0.21639826  0.37120581    -0.11880
C574        C  0.66716091  0.18632360  0.35376852     0.02050
H575        H  0.57487623  0.13693170  0.37074359     0.15030
H576        H  0.69272200  0.23898092  0.37123757     0.15030
C577        C  0.70117892  0.18712093  0.33621655     0.36680
C578        C  0.56626946  0.18919614  0.40522738     0.36590
N579        N  0.72838510  0.18803475  0.32210386    -0.43660
N580        N  0.53898046  0.18888778  0.41930488    -0.43660
C581        C  0.62475800  0.40496857  0.38658422    -0.00070
C582        C  0.58843433  0.40945847  0.37196553    -0.11940
C583        C  0.58713682  0.43966035  0.35473484     0.02170
C584        C  0.62230408  0.46691068  0.35244619    -0.00160
C585        C  0.65843416  0.46233552  0.36727927    -0.11880
C586        C  0.66012960  0.43168546  0.38404120     0.02050
H587        H  0.56137245  0.38868069  0.37363429     0.15030
H588        H  0.68577914  0.48283080  0.36582635     0.15030
C589        C  0.69823185  0.42914460  0.39877023     0.36680
C590        C  0.54965229  0.44131250  0.33955159     0.36590
N591        N  0.72889021  0.42716859  0.41045817    -0.43660
N592        N  0.51964724  0.44228064  0.32732512    -0.43660
In593      In  0.62618341  0.56238708  0.30563615     1.36870
C594        C  0.63150820  0.62396608  0.33573187     0.77670
O595        O  0.60659519  0.59840826  0.27418981    -0.60780
O596        O  0.55709334  0.56801908  0.29332118    -0.51690
C597        C  0.68566878  0.53235685  0.27647393     0.70330
O598        O  0.69275057  0.56273780  0.28939810    -0.46550
C599        C  0.62289526  0.50066117  0.33531396     0.75040
O600        O  0.66137000  0.61590331  0.32118557    -0.58410
O601        O  0.59321739  0.50735861  0.32051001    -0.48500
O602        O  0.59919851  0.60077499  0.33441762    -0.54840
C603        C  0.56673289  0.59067149  0.27624137     0.85220
O604        O  0.64791625  0.51793283  0.27847182    -0.56730
O605        O  0.65382382  0.52553796  0.33458822    -0.60020
In606      In  0.62932199  0.81319233  0.43532238     1.36870
C607        C  0.63310526  0.75243324  0.40497641     0.77670
O608        O  0.60565565  0.76812473  0.46150342    -0.60780
O609        O  0.56577843  0.81862812  0.45453243    -0.51690
C610        C  0.68702204  0.84298961  0.46551638     0.70330
O611        O  0.69135469  0.80878643  0.45602278    -0.46550
C612        C  0.62563300  0.87186777  0.40389848     0.75040
O613        O  0.66673305  0.76650615  0.41476155    -0.58410
O614        O  0.59228476  0.85959053  0.41478280    -0.48500
O615        O  0.59832226  0.76969572  0.41065077    -0.54840
C616        C  0.57041628  0.78599119  0.46560911     0.85220
O617        O  0.65268847  0.86104756  0.45997457    -0.56730
O618        O  0.66011292  0.85365784  0.40895146    -0.60020
In619      In  0.87810406  0.68769274  0.68633971     1.36870
C620        C  0.87555092  0.62794809  0.65516368     0.77670
O621        O  0.84917480  0.72816215  0.65949567    -0.60780
O622        O  0.91471049  0.73855249  0.66905795    -0.51690
C623        C  0.81845247  0.71593051  0.71592433     0.70330
O624        O  0.81012735  0.68909472  0.70076125    -0.46550
C625        C  0.93673437  0.65743410  0.71567619     0.75040
O626        O  0.84500108  0.63415651  0.66963464    -0.58410
O627        O  0.94315755  0.68931669  0.70407308    -0.48500
O628        O  0.90674495  0.65228210  0.65701006    -0.54840
C629        C  0.88302535  0.74886786  0.65637967     0.85220
O630        O  0.85738098  0.72770554  0.71600146    -0.56730
O631        O  0.89988477  0.64179605  0.71245190    -0.60020
In632      In  0.87893036  0.93742447  0.55676803     1.36870
C633        C  0.87451629  0.99638102  0.58808019     0.77670
O634        O  0.84915448  0.89963907  0.58458124    -0.60780
O635        O  0.91498686  0.88842277  0.57594093    -0.51690
C636        C  0.81824176  0.90909792  0.52774416     0.70330
O637        O  0.81633841  0.94397303  0.53655290    -0.46550
C638        C  0.93856037  0.96531426  0.52695864     0.75040
O639        O  0.84146126  0.98391613  0.57705337    -0.58410
O640        O  0.94023214  0.93017734  0.53529343    -0.48500
O641        O  0.90941833  0.97867149  0.58295184    -0.54840
C642        C  0.88231629  0.87866330  0.58826260     0.85220
O643        O  0.85194926  0.88993896  0.53303112    -0.56730
O644        O  0.90611898  0.98546289  0.53342160    -0.60020
In645      In  0.37540475  0.93718158  0.05666766     1.36870
C646        C  0.37120160  0.99715536  0.08724440     0.77670
O647        O  0.34465181  0.89873997  0.08412937    -0.60780
O648        O  0.41053230  0.88745034  0.07529579    -0.51690
C649        C  0.31513248  0.90883902  0.02768785     0.70330
O650        O  0.30830361  0.93845077  0.04110402    -0.46550
C651        C  0.43646758  0.96547059  0.02779760     0.75040
O652        O  0.34567671  0.99433366  0.06988916    -0.58410
O653        O  0.43859459  0.93097570  0.03693562    -0.48500
O654        O  0.39861260  0.96931113  0.08892889    -0.54840
C655        C  0.37818588  0.87821469  0.08800086     0.85220
O656        O  0.35268283  0.89433568  0.02878826    -0.56730
O657        O  0.40332499  0.98517435  0.03353643    -0.60020
In658      In  0.37857524  0.68737927  0.18521871     1.36870
C659        C  0.38137205  0.74904503  0.15594922     0.77670
O660        O  0.39699898  0.65548067  0.15195206    -0.60780
O661        O  0.34914075  0.62827867  0.17362021    -0.51690
C662        C  0.43901889  0.66054159  0.21460018     0.70330
O663        O  0.44781695  0.68454719  0.19804322    -0.46550
C664        C  0.31930899  0.71797674  0.21408062     0.75040
O665        O  0.41481141  0.73648783  0.16646552    -0.58410
O666        O  0.31160731  0.68834038  0.20066321    -0.48500
O667        O  0.34668429  0.73057234  0.16084195    -0.54840
C668        C  0.37170664  0.62628073  0.15505696     0.85220
O669        O  0.39964937  0.65085667  0.21613828    -0.56730
O670        O  0.35759812  0.73148598  0.21276261    -0.60020
In671      In  0.37738355  0.93698785  0.68575555     1.37350
C672        C  0.37532601  0.87594257  0.65559571     0.77670
O673        O  0.34869506  0.97448614  0.65748384    -0.60780
O674        O  0.41278511  0.98855634  0.66823946    -0.51690
C675        C  0.31708893  0.96510791  0.71519178     0.70330
O676        O  0.31181701  0.93358230  0.70305540    -0.46550
C677        C  0.43548632  0.90816539  0.71580808     0.75040
O678        O  0.34159877  0.88861401  0.66583408    -0.58410
O679        O  0.44261030  0.93890111  0.70326313    -0.48500
O680        O  0.40963607  0.89463994  0.66076519    -0.54840
C681        C  0.38120883  0.99708481  0.65500742     0.85220
O682        O  0.35385472  0.98136838  0.71266666    -0.56730
O683        O  0.39804775  0.89331179  0.71334466    -0.60020
In684      In  0.37973732  0.68672334  0.55598635     1.36870
C685        C  0.37559740  0.74709872  0.58672549     0.77670
O686        O  0.35003274  0.64643216  0.58290143    -0.60780
O687        O  0.41632980  0.63757436  0.57455039    -0.51690
C688        C  0.31914759  0.65817647  0.52680784     0.70330
O689        O  0.31265337  0.68742763  0.54057611    -0.46550
C690        C  0.43941987  0.71549275  0.52648143     0.75040
O691        O  0.34565337  0.73966242  0.57215219    -0.58410
O692        O  0.44336192  0.68212836  0.53679881    -0.48500
O693        O  0.40742761  0.72352008  0.58532337    -0.54840
C694        C  0.38405128  0.62666015  0.58675963     0.85220
O695        O  0.35716486  0.64442488  0.52763795    -0.56730
O696        O  0.40457373  0.73362082  0.53106904    -0.60020
In697      In  0.62557603  0.56159364  0.93557877     1.36870
C698        C  0.63068863  0.50178492  0.90469127     0.77670
O699        O  0.59788634  0.51310719  0.95839637    -0.60780
O700        O  0.56428944  0.56852080  0.95685348    -0.51690
C701        C  0.68665616  0.58872612  0.96473757     0.70330
O702        O  0.69390374  0.56218682  0.94924958    -0.46550
C703        C  0.62097023  0.62255637  0.90559278     0.75040
O704        O  0.65728127  0.50577581  0.92148950    -0.58410
O705        O  0.58750777  0.60689879  0.91472588    -0.48500
O706        O  0.60210639  0.52869167  0.90370583    -0.54840
C707        C  0.56585776  0.53343304  0.96524858     0.85220
O708        O  0.64777323  0.60031701  0.96557657    -0.56730
O709        O  0.65628287  0.60730623  0.91213990    -0.60020
In710      In  0.62689691  0.81222623  0.80654459     1.36870
C711        C  0.63058500  0.87315694  0.83645918     0.77670
O712        O  0.60518995  0.85724335  0.77996670    -0.60780
O713        O  0.56126302  0.81079259  0.78940180    -0.51690
C714        C  0.68609308  0.78379353  0.77672480     0.70330
O715        O  0.69436338  0.81118456  0.79152662    -0.46550
C716        C  0.62380647  0.75245230  0.83765903     0.75040
O717        O  0.66134279  0.86523977  0.82247611    -0.58410
O718        O  0.59248450  0.76004126  0.82403607    -0.48500
O719        O  0.59806821  0.85023226  0.83501801    -0.54840
C720        C  0.56802297  0.84201522  0.77722443     0.85220
O721        O  0.64739864  0.77138446  0.77712454    -0.56730
O722        O  0.65624270  0.77501275  0.83477772    -0.60020
In723      In  0.12692815  0.56188223  0.80722094     1.36870
C724        C  0.13086986  0.62191636  0.83823620     0.77670
O725        O  0.10576241  0.60690448  0.78046437    -0.60780
O726        O  0.06347942  0.55813477  0.78791450    -0.51690
C727        C  0.18687695  0.53480387  0.77735414     0.70330
O728        O  0.19258314  0.56557482  0.79013237    -0.46550
C729        C  0.12058368  0.50074941  0.83700065     0.75040
O730        O  0.16425958  0.60839049  0.82805888    -0.58410
O731        O  0.08761019  0.51635085  0.82766775    -0.48500
O732        O  0.09605049  0.60465520  0.83250353    -0.54840
C733        C  0.06962443  0.59031107  0.77652681     0.85220
O734        O  0.14980546  0.51888217  0.77945729    -0.56730
O735        O  0.15621921  0.51633037  0.83111001    -0.60020
In736      In  0.12651220  0.81349342  0.93641010     1.36870
C737        C  0.12848677  0.75431272  0.90492540     0.77670
O738        O  0.10083229  0.76571694  0.96037473    -0.60780
O739        O  0.06329073  0.81862092  0.95621321    -0.51690
C740        C  0.18724804  0.84118900  0.96541375     0.70330
O741        O  0.19032429  0.80735985  0.95547961    -0.46550
C742        C  0.12163509  0.87312692  0.90560137     0.75040
O743        O  0.16084249  0.76316354  0.91766188    -0.58410
O744        O  0.09212646  0.86625868  0.92060284    -0.48500
O745        O  0.09567354  0.77607067  0.90845589    -0.54840
C746        C  0.06664599  0.78435727  0.96547729     0.85220
O747        O  0.15315911  0.86020234  0.96085717    -0.56730
O748        O  0.15331366  0.84929158  0.90643436    -0.60020
In749      In  0.87785297  0.93671947  0.18524214     1.36870
C750        C  0.87332236  0.87595508  0.15491043     0.77670
O751        O  0.84841197  0.98100899  0.16065465    -0.60780
O752        O  0.91686016  0.98223556  0.16452476    -0.51690
C753        C  0.81949906  0.96511458  0.21563130     0.70330
O754        O  0.81284801  0.93403437  0.20321779    -0.46550
C755        C  0.93519955  0.90797199  0.21576442     0.75040
O756        O  0.83980725  0.89098991  0.16418054    -0.58410
O757        O  0.94190890  0.93961538  0.20392972    -0.48500
O758        O  0.90846366  0.89218163  0.16104497    -0.54840
C759        C  0.88383612  0.99700576  0.15474045     0.85220
O760        O  0.85651602  0.98072361  0.21277124    -0.56730
O761        O  0.89849768  0.89209351  0.21234101    -0.60020
In762      In  0.87772615  0.68629707  0.05592835     1.36870
C763        C  0.87386497  0.74705462  0.08626436     0.77670
O764        O  0.84822438  0.64775325  0.08370692    -0.60780
O765        O  0.91365077  0.63647006  0.07437819    -0.51690
C766        C  0.81673978  0.65854198  0.02674885     0.70330
O767        O  0.80989752  0.68648024  0.04136895    -0.46550
C768        C  0.93814355  0.71542252  0.02723642     0.75040
O769        O  0.84495329  0.74083812  0.07086702    -0.58410
O770        O  0.93965345  0.67998136  0.03507056    -0.48500
O771        O  0.90454711  0.72203394  0.08590703    -0.54840
C772        C  0.88173557  0.62721072  0.08734621     0.85220
O773        O  0.85519455  0.64588870  0.02668168    -0.56730
O774        O  0.90553249  0.73532991  0.03365571    -0.60020
In775      In  0.12791252  0.56113223  0.43525276     1.36870
C776        C  0.13391812  0.50163664  0.40439547     0.77670
O777        O  0.09619728  0.51076276  0.45495568    -0.60780
O778        O  0.06666719  0.56817683  0.45677437    -0.51690
C779        C  0.18895480  0.58744286  0.46496651     0.70330
O780        O  0.19619180  0.56114321  0.44936580    -0.46550
C781        C  0.12391462  0.62214856  0.40513314     0.75040
O782        O  0.15717994  0.50324121  0.42273264    -0.58410
O783        O  0.09074769  0.60884792  0.41578784    -0.48500
O784        O  0.10839134  0.53077169  0.40173750    -0.54840
C785        C  0.06558514  0.53171907  0.46288480     0.85220
O786        O  0.15012045  0.59904840  0.46568938    -0.56730
O787        O  0.15865666  0.60438434  0.41032538    -0.60020
In788      In  0.12796475  0.81209150  0.30606766     1.36870
C789        C  0.12649997  0.75150483  0.33644601     0.77670
O790        O  0.14948002  0.76862117  0.27824521    -0.60780
O791        O  0.19489376  0.81209503  0.29020864    -0.51690
C792        C  0.06779289  0.84127712  0.27705180     0.70330
O793        O  0.06124558  0.81050498  0.28963204    -0.46550
C794        C  0.13278718  0.87245499  0.33656983     0.75040
O795        O  0.09378558  0.76070323  0.32414137    -0.58410
O796        O  0.15833678  0.86939514  0.31921224    -0.48500
O797        O  0.15936702  0.77343001  0.33294242    -0.54840
C798        C  0.18756906  0.78238209  0.27685284     0.85220
O799        O  0.10507604  0.85626474  0.27935126    -0.56730
O800        O  0.10513702  0.84464834  0.33832789    -0.60020
C801        C  0.12623748  0.71814606  0.35385126    -0.00070
C802        C  0.08638106  0.70120602  0.36083815    -0.11940
C803        C  0.08444781  0.67027832  0.37761894     0.02170
C804        C  0.12310654  0.65551263  0.38774711    -0.00160
C805        C  0.16289854  0.67229294  0.38060406    -0.11880
C806        C  0.16487914  0.70315313  0.36392772     0.02050
H807        H  0.05646247  0.71229660  0.35326160     0.15030
H808        H  0.19292850  0.66121982  0.38807812     0.15030
C809        C  0.20729289  0.71801515  0.35728942     0.36680
C810        C  0.04241849  0.65390787  0.38363431     0.36590
N811        N  0.24135370  0.72977433  0.35202797    -0.43660
N812        N  0.00867119  0.64082222  0.38838693    -0.43660
C813        C  0.13481099  0.90581385  0.35363732    -0.00070
C814        C  0.13427938  0.89693822  0.37783588    -0.11940
C815        C  0.13524046  0.92773106  0.39472167     0.02170
C816        C  0.13567931  0.96819616  0.38735213    -0.00160
C817        C  0.13548932  0.97704501  0.36314289    -0.11880
C818        C  0.13559183  0.94623732  0.34626776     0.02050
H819        H  0.13319243  0.86583244  0.38354171     0.15030
H820        H  0.13526002  0.50814421  0.35741232     0.15030
C821        C  0.13426363  0.95682841  0.32156914     0.36680
C822        C  0.13356104  0.91707157  0.41941400     0.36590
N823        N  0.13303359  0.96534485  0.30178169    -0.43660
N824        N  0.13207300  0.90849321  0.43919441    -0.43660
C825        C  0.96826901  0.89058665  0.23186010    -0.00070
C826        C  0.00963782  0.90836545  0.23262185    -0.11940
C827        C  0.04255827  0.89279321  0.24688171     0.02170
C828        C  0.03440298  0.85860471  0.26112669    -0.00160
C829        C  0.99305348  0.84076167  0.26034427    -0.11880
C830        C  0.96020977  0.85618306  0.24592328     0.02050
H831        H  0.01659950  0.93449152  0.22181333     0.15030
H832        H  0.98619824  0.81453560  0.27108421     0.15030
C833        C  0.91873242  0.83584262  0.24607438     0.36680
C834        C  0.08435221  0.91257563  0.24616732     0.36590
N835        N  0.88557048  0.81939811  0.24622754    -0.43660
N836        N  0.11780010  0.92847538  0.24546465    -0.43660
C837        C  0.87230535  0.78044807  0.10367781    -0.00070
C838        C  0.90104218  0.77938526  0.12290426    -0.11940
C839        C  0.90132629  0.80988043  0.13992475     0.02170
C840        C  0.87209271  0.84216065  0.13807582    -0.00160
C841        C  0.84297439  0.84324797  0.11913498    -0.11880
C842        C  0.84323064  0.81311565  0.10177331     0.02050
H843        H  0.92341595  0.75451121  0.12476048     0.15030
H844        H  0.82099541  0.86847072  0.11746188     0.15030
C845        C  0.81471998  0.81766354  0.08178331     0.36680
C846        C  0.93103497  0.80671773  0.15953119     0.36590
N847        N  0.79206724  0.82163817  0.06569725    -0.43660
N848        N  0.95471585  0.80416486  0.17528028    -0.43660
C849        C  0.88555694  0.53079548  0.13795876    -0.00070
C850        C  0.85330863  0.56020769  0.13955850    -0.11940
C851        C  0.85203281  0.59224563  0.12367760     0.02170
C852        C  0.88318593  0.59488587  0.10531751    -0.00160
C853        C  0.91583912  0.56557435  0.10390789    -0.11880
C854        C  0.91720208  0.53362905  0.12001381     0.02050
H855        H  0.82910863  0.55831192  0.15346821     0.15030
H856        H  0.93976828  0.56704621  0.08986562     0.15030
C857        C  0.94965125  0.00290209  0.11688604     0.36680
C858        C  0.81893863  0.62232703  0.12715789     0.36590
N859        N  0.97542960  0.97808098  0.11431321    -0.43660
N860        N  0.79250479  0.64645804  0.13004109    -0.43660
C861        C  0.97185580  0.73274449  0.01186987    -0.00070
C862        C  0.98222263  0.71336547  0.99060614    -0.11940
C863        C  0.01249108  0.73030259  0.97501533     0.02170
C864        C  0.03315359  0.76688493  0.98088138    -0.00160
C865        C  0.02286694  0.78622172  0.00214983    -0.11880
C866        C  0.99256479  0.76932875  0.01772330     0.02050
H867        H  0.96586202  0.68553062  0.98592558     0.15030
H868        H  0.03922075  0.81406789  0.00681182     0.15030
C869        C  0.98474600  0.78895034  0.04010988     0.36680
C870        C  0.02032194  0.71077861  0.95259589     0.36590
N871        N  0.97869976  0.80435991  0.05816060    -0.43660
N872        N  0.02635483  0.69547534  0.93451148    -0.43660
C873        C  0.11827838  0.96704629  0.85366859    -0.00070
C874        C  0.09553199  0.97186875  0.87492691    -0.11940
C875        C  0.09636762  0.94188966  0.89226609     0.02170
C876        C  0.11946729  0.90592926  0.88806827    -0.00160
C877        C  0.14173607  0.90112859  0.86657954    -0.11880
C878        C  0.14141879  0.93133443  0.84946854     0.02050
H879        H  0.07855467  0.49979791  0.87836759     0.15030
H880        H  0.15938683  0.87358964  0.86307944     0.15030
C881        C  0.16422393  0.92469840  0.82748907     0.36680
C882        C  0.07580632  0.95002610  0.91469967     0.36590
N883        N  0.18228926  0.91937506  0.80982143    -0.43660
N884        N  0.05969632  0.95683016  0.93274718    -0.43660
C885        C  0.12892151  0.72091149  0.88743810    -0.00070
C886        C  0.16467331  0.69476591  0.88684266    -0.11940
C887        C  0.16624163  0.66240258  0.87094860     0.02170
C888        C  0.13157465  0.65575044  0.85519661    -0.00160
C889        C  0.09582858  0.68164129  0.85580695    -0.11880
C890        C  0.09423163  0.71407472  0.87153708     0.02050
H891        H  0.19131693  0.69922804  0.89904904     0.15030
H892        H  0.06908515  0.67677379  0.84368970     0.15030
C893        C  0.05671294  0.73988429  0.87055648     0.36680
C894        C  0.20267285  0.63534770  0.87200166     0.36590
N895        N  0.02663644  0.76052393  0.86967348    -0.43660
N896        N  0.23170405  0.61347579  0.87291417    -0.43660
C897        C  0.78283438  0.64135441  0.01103449    -0.00070
C898        C  0.79580833  0.61645577  0.99223626    -0.11940
C899        C  0.76540993  0.59878128  0.97702706     0.02170
C900        C  0.72060528  0.60570122  0.98052776    -0.00160
C901        C  0.70764048  0.63051662  0.99937723    -0.11880
C902        C  0.73804473  0.64819983  0.01457605     0.02050
H903        H  0.83004944  0.61091478  0.98923936     0.15030
H904        H  0.67340874  0.63605904  0.00240242     0.15030
C905        C  0.72197803  0.67229625  0.03393294     0.36680
C906        C  0.78152650  0.57449133  0.95776930     0.36590
N907        N  0.70890581  0.69149172  0.04944729    -0.43660
N908        N  0.79466204  0.55512600  0.94234434    -0.43660
C909        C  0.62277389  0.71988146  0.85557187    -0.00070
C910        C  0.58819877  0.69214383  0.85546870    -0.11940
C911        C  0.58644921  0.66047472  0.87176497     0.02170
C912        C  0.61975984  0.65617922  0.88860864    -0.00160
C913        C  0.65409977  0.68389690  0.88882524    -0.11880
C914        C  0.65580416  0.71566203  0.87274807     0.02050
H915        H  0.56274778  0.69477073  0.84238806     0.15030
H916        H  0.67971315  0.68090197  0.90180678     0.15030
C917        C  0.69166521  0.74357074  0.87473153     0.36680
C918        C  0.55143292  0.63167041  0.86999469     0.36590
N919        N  0.72038279  0.76591092  0.87642916    -0.43660
N920        N  0.52351624  0.60843691  0.86851630    -0.43660
C921        C  0.63238696  0.96854643  0.88733285    -0.00070
C922        C  0.61473985  0.97488450  0.86478626    -0.11940
C923        C  0.61451505  0.94425132  0.84783207     0.02170
C924        C  0.63225721  0.90657611  0.85333565    -0.00160
C925        C  0.64977393  0.89993499  0.87576699    -0.11880
C926        C  0.64983896  0.93048035  0.89283803     0.02050
H927        H  0.60103366  0.50388977  0.86036934     0.15030
H928        H  0.66260740  0.87053715  0.88009232     0.15030
C929        C  0.66567740  0.92114935  0.91615188     0.36680
C930        C  0.59556289  0.95196178  0.82500034     0.36590
N931        N  0.67808973  0.91347676  0.93487066    -0.43660
N932        N  0.58029896  0.95817551  0.80672906    -0.43660
C933        C  0.22284801  0.60439517  0.48087186    -0.00070
C934        C  0.21076560  0.63429048  0.49718600    -0.11940
C935        C  0.24122765  0.65242266  0.51217765     0.02170
C936        C  0.28525707  0.64071914  0.51111094    -0.00160
C937        C  0.29732353  0.61069554  0.49488355    -0.11880
C938        C  0.26685848  0.59261246  0.47985411     0.02050
H939        H  0.17718872  0.64379335  0.49825293     0.15030
H940        H  0.33091629  0.60123799  0.49382767     0.15030
C941        C  0.28209903  0.56227722  0.46358952     0.36680
C942        C  0.22590931  0.68255676  0.52856302     0.36590
N943        N  0.29454909  0.53800857  0.45058756    -0.43660
N944        N  0.21342949  0.70665975  0.54166483    -0.43660
C945        C  0.22070521  0.51794994  0.76138955    -0.00070
C946        C  0.20897709  0.98690373  0.74573462    -0.11940
C947        C  0.23948181  0.96914031  0.73061913     0.02170
C948        C  0.28319791  0.98224258  0.73099515    -0.00160
C949        C  0.29491515  0.51334081  0.74660745    -0.11880
C950        C  0.26441014  0.53112154  0.76171654     0.02050
H951        H  0.17561054  0.97643558  0.74517263     0.15030
H952        H  0.32829539  0.52377503  0.74717239     0.15030
C953        C  0.27942225  0.56219172  0.77760422     0.36680
C954        C  0.22446833  0.93820719  0.71463817     0.36590
N955        N  0.29166802  0.58702355  0.79032588    -0.43660
N956        N  0.21223893  0.91349997  0.70182860    -0.43660
C957        C  0.53479640  0.85937589  0.76124597    -0.00070
C958        C  0.49492606  0.83924771  0.75872872    -0.11940
C959        C  0.46216679  0.85433876  0.74417088     0.02170
C960        C  0.46873682  0.89078192  0.73176523    -0.00160
C961        C  0.50867230  0.91082814  0.73420885    -0.11880
C962        C  0.54154208  0.89560084  0.74864176     0.02050
H963        H  0.48922454  0.81134783  0.76813132     0.15030
H964        H  0.51443404  0.93864828  0.72473547     0.15030
C965        C  0.58165975  0.91806842  0.75000498     0.36680
C966        C  0.42257862  0.83121029  0.74219519     0.36590
N967        N  0.61375060  0.93617665  0.75100131    -0.43660
N968        N  0.39096909  0.81250201  0.74063294    -0.43660
C969        C  0.37413173  0.78034143  0.60427706    -0.00070
C970        C  0.40815081  0.78351500  0.62069401    -0.11940
C971        C  0.40889893  0.81410162  0.63766185     0.02170
C972        C  0.37486836  0.84223993  0.63862514    -0.00160
C973        C  0.34051776  0.83896240  0.62255252    -0.11880
C974        C  0.34006514  0.80872997  0.60526403     0.02050
H975        H  0.43443054  0.76192760  0.62037015     0.15030
H976        H  0.31450001  0.86082247  0.62308674     0.15030
C977        C  0.30481626  0.80848430  0.58852727     0.36680
C978        C  0.44423052  0.81505735  0.65438582     0.36590
N979        N  0.27661148  0.80858409  0.57507566    -0.43660
N980        N  0.47245728  0.81574940  0.66782296    -0.43660
C981        C  0.38495220  0.59345945  0.60421076    -0.00070
C982        C  0.34513142  0.57932245  0.61304915    -0.11940
C983        C  0.34322100  0.54837766  0.62962833     0.02170
C984        C  0.38191942  0.53067782  0.63788459    -0.00160
C985        C  0.42187893  0.54507734  0.62936071    -0.11880
C986        C  0.42375603  0.57602158  0.61258393     0.02050
H987        H  0.31503122  0.59248783  0.60696447     0.15030
H988        H  0.45179464  0.53178784  0.63560884     0.15030
C989        C  0.46591634  0.58945452  0.60464535     0.36680
C990        C  0.30095876  0.53639980  0.63827347     0.36590
N991        N  0.49978570  0.60012944  0.59833303    -0.43660
N992        N  0.26706935  0.52691771  0.64518241    -0.43660
C993        C  0.22098860  0.76527556  0.26085018    -0.00070
C994        C  0.25676518  0.78921413  0.25449702    -0.11940
C995        C  0.28898639  0.77471400  0.23923493     0.02170
C996        C  0.28601211  0.73516704  0.23012163    -0.00160
C997        C  0.25027641  0.71121927  0.23650706    -0.11880
C998        C  0.21806919  0.72570501  0.25176211     0.02050
H999        H  0.25929067  0.81971786  0.26119331     0.15030
H1000       H  0.24775297  0.68070469  0.22982634     0.15030
C1001       C  0.18335538  0.69865312  0.25836187     0.36680
C1002       C  0.32373290  0.80171610  0.23262212     0.36590
N1003       N  0.15568042  0.67684353  0.26368108    -0.43660
N1004       N  0.35143380  0.82348175  0.22728093    -0.43660
C1005       C  0.22092559  0.85792008  0.98091763    -0.00070
C1006       C  0.22732068  0.84092563  0.00324377    -0.11940
C1007       C  0.25739049  0.85778538  0.01895377     0.02170
C1008       C  0.28177483  0.89177589  0.01214121    -0.00160
C1009       C  0.27556718  0.90862990  0.98977857    -0.11880
C1010       C  0.24519324  0.89204295  0.97416461     0.02050
H1011       H  0.20822539  0.81499321  0.00855313     0.15030
H1012       H  0.29469339  0.93454574  0.98446958     0.15030
C1013       C  0.24019428  0.90977788  0.95108166     0.36680
C1014       C  0.26219370  0.84032469  0.04211916     0.36590
N1015       N  0.23624523  0.92379626  0.93253189    -0.43660
N1016       N  0.26595110  0.82655949  0.06074702    -0.43660
C1017       C  0.53279578  0.51676822  0.98153584    -0.00070
C1018       C  0.52512956  0.97510453  0.98131264    -0.11940
C1019       C  0.49393633  0.95768492  0.99615887     0.02170
C1020       C  0.46998486  0.98211690  0.01181857    -0.00160
C1021       C  0.47767740  0.52376297  0.01208478    -0.11880
C1022       C  0.50892725  0.54118619  0.99726646     0.02050
H1023       H  0.54301245  0.95610471  0.96914496     0.15030
H1024       H  0.45968361  0.54273523  0.02422303     0.15030
C1025       C  0.51717955  0.58380008  0.99938776     0.36680
C1026       C  0.48564729  0.91507328  0.99406809     0.36590
N1027       N  0.52399709  0.61789806  0.00121516    -0.43660
N1028       N  0.47879330  0.88097740  0.99227291    -0.43660
C1029       C  0.38229007  0.78257081  0.13903124    -0.00070
C1030       C  0.35044781  0.81230542  0.14085619    -0.11940
C1031       C  0.34899785  0.84410962  0.12477304     0.02170
C1032       C  0.37942086  0.84599775  0.10601953    -0.00160
C1033       C  0.41147121  0.81619698  0.10433664    -0.11880
C1034       C  0.41305719  0.78458018  0.12061289     0.02050
H1035       H  0.32689141  0.81090300  0.15510599     0.15030
H1036       H  0.43478863  0.81707307  0.08997500     0.15030
C1037       C  0.44479086  0.75327787  0.11721661     0.36680
C1038       C  0.31680895  0.87492138  0.12851711     0.36590
N1039       N  0.46994690  0.72797479  0.11443898    -0.43660
N1040       N  0.29116939  0.89970330  0.13161438    -0.43660
C1041       C  0.36948879  0.53043511  0.10433787    -0.00070
C1042       C  0.36908996  0.52150751  0.12853162    -0.11940
C1043       C  0.36852053  0.55229649  0.14543312     0.02170
C1044       C  0.36925094  0.59275829  0.13807664    -0.00160
C1045       C  0.37029398  0.60160889  0.11385966    -0.11880
C1046       C  0.36997993  0.57084694  0.09697505     0.02050
H1047       H  0.36925454  0.99037914  0.13421576     0.15030
H1048       H  0.37150697  0.63269650  0.10812416     0.15030
C1049       C  0.37256028  0.58142877  0.07228893     0.36680
C1050       C  0.36962443  0.54162139  0.17012084     0.36590
N1051       N  0.37484497  0.58989781  0.05251335    -0.43660
N1052       N  0.37069892  0.53303860  0.18990248    -0.43660
C1053       C  0.97181279  0.98199654  0.51092918    -0.00070
C1054       C  0.98255882  0.96101166  0.49024289    -0.11940
C1055       C  0.01229869  0.97718150  0.47402776     0.02170
C1056       C  0.03199680  0.51480469  0.47859931    -0.00160
C1057       C  0.02128417  0.53568399  0.49928152    -0.11880
C1058       C  0.99176214  0.51947403  0.51551212     0.02050
H1059       H  0.96692073  0.93242923  0.48648788     0.15030
H1060       H  0.03704280  0.56419331  0.50311270     0.15030
C1061       C  0.98460528  0.54082545  0.53735862     0.36680
C1062       C  0.02038461  0.95568554  0.45228240     0.36590
N1063       N  0.97982210  0.55818579  0.55488297    -0.43660
N1064       N  0.02654219  0.93871052  0.43473562    -0.43660
C1065       C  0.78500534  0.73291675  0.73189064    -0.00070
C1066       C  0.74137402  0.73172486  0.72483104    -0.11940
C1067       C  0.70871662  0.74866262  0.73889201     0.02170
C1068       C  0.71944735  0.76691937  0.76068528    -0.00160
C1069       C  0.76306824  0.76820234  0.76771499    -0.11880
C1070       C  0.79572283  0.75130200  0.75366009     0.02050
H1071       H  0.73279829  0.71823168  0.70801772     0.15030
H1072       H  0.77164197  0.78173750  0.78451820     0.15030
C1073       C  0.83962775  0.75192852  0.76250975     0.36680
C1074       C  0.66482340  0.74835214  0.73002254     0.36590
N1075       N  0.87478692  0.75226200  0.76963169    -0.43660
N1076       N  0.62967750  0.74832986  0.72288053    -0.43660
C1077       C  0.97011305  0.63973619  0.73144016    -0.00070
C1078       C  0.01115689  0.65813882  0.73260952    -0.11940
C1079       C  0.04415631  0.64256069  0.74682873     0.02170
C1080       C  0.03651697  0.60754097  0.76041043    -0.00160
C1081       C  0.99551292  0.58906620  0.75918450    -0.11880
C1082       C  0.96247940  0.60469807  0.74500475     0.02050
H1083       H  0.01770497  0.68491127  0.72228289     0.15030
H1084       H  0.98893435  0.56235338  0.76955681     0.15030
C1085       C  0.92115036  0.58407845  0.74503058     0.36680
C1086       C  0.08539424  0.66333356  0.74691198     0.36590
N1087       N  0.88808244  0.56746764  0.74512738    -0.43660
N1088       N  0.11836490  0.68011007  0.74691438    -0.43660
C1089       C  0.88442599  0.78237643  0.63917044    -0.00070
C1090       C  0.84482542  0.79730346  0.63084086    -0.11940
C1091       C  0.84339094  0.82827456  0.61428396     0.02170
C1092       C  0.88242071  0.84533912  0.60560725    -0.00160
C1093       C  0.92214931  0.83017496  0.61370658    -0.11880
C1094       C  0.92350983  0.79903239  0.63035563     0.02050
H1095       H  0.81453082  0.78465262  0.63727694     0.15030
H1096       H  0.95231744  0.84276729  0.60708094     0.15030
C1097       C  0.96539981  0.78416402  0.63746943     0.36680
C1098       C  0.80118653  0.84088171  0.60615121     0.36590
N1099       N  0.99903513  0.77224285  0.64308468    -0.43660
N1100       N  0.76733624  0.85084338  0.59965274    -0.43660
C1101       C  0.87513568  0.59474650  0.63757891    -0.00070
C1102       C  0.84000063  0.56757908  0.63729614    -0.11940
C1103       C  0.83876309  0.53539910  0.62124077     0.02170
C1104       C  0.87333702  0.52980421  0.60524211    -0.00160
C1105       C  0.90846571  0.55655020  0.60566055    -0.11880
C1106       C  0.90947274  0.58912340  0.62123151     0.02050
H1107       H  0.81355782  0.57120638  0.64977390     0.15030
H1108       H  0.93519001  0.55222782  0.59350775     0.15030
C1109       C  0.94607761  0.61626884  0.61959351     0.36680
C1110       C  0.80292280  0.50738807  0.62238262     0.36590
N1111       N  0.97535190  0.63802775  0.61810737    -0.43660
N1112       N  0.77437783  0.98474030  0.62335629    -0.43660
C1113       C  0.47306817  0.73278859  0.51070397    -0.00070
C1114       C  0.47382396  0.77460340  0.50721859    -0.11940
C1115       C  0.50538403  0.79276989  0.49290226     0.02170
C1116       C  0.53695164  0.76887337  0.48154492    -0.00160
C1117       C  0.53622716  0.72707861  0.48504766    -0.11880
C1118       C  0.50468118  0.70890602  0.49934722     0.02050
H1119       H  0.45004293  0.79336472  0.51604371     0.15030
H1120       H  0.55997097  0.70831475  0.47619051     0.15030
C1121       C  0.50469796  0.66563064  0.50125785     0.36680
C1122       C  0.50548115  0.83603541  0.49096148     0.36590
N1123       N  0.50467685  0.63093701  0.50267757    -0.43660
N1124       N  0.50561052  0.87072684  0.48952729    -0.43660
C1125       C  0.71966005  0.86058755  0.48174920    -0.00070
C1126       C  0.74514551  0.83473532  0.49539692    -0.11940
C1127       C  0.77652633  0.84990505  0.51092976     0.02170
C1128       C  0.78384176  0.89184217  0.51249582    -0.00160
C1129       C  0.75787587  0.91774152  0.49915357    -0.11880
C1130       C  0.72594354  0.90260273  0.48392398     0.02050
H1131       H  0.73991761  0.80250802  0.49429152     0.15030
H1132       H  0.76302428  0.94997082  0.50031570     0.15030
C1133       C  0.70124964  0.93095087  0.47020621     0.36680
C1134       C  0.79903667  0.82182975  0.52592140     0.36590
N1135       N  0.68150822  0.95380257  0.45928334    -0.43660
N1136       N  0.81671442  0.79938033  0.53811287    -0.43660
C1137       C  0.53401442  0.60765800  0.26016442    -0.00070
C1138       C  0.49491960  0.62199730  0.26963269    -0.11940
C1139       C  0.46403775  0.64029032  0.25513738     0.02170
C1140       C  0.47200419  0.64410901  0.23068442    -0.00160
C1141       C  0.51107149  0.62976714  0.22120884    -0.11880
C1142       C  0.54187472  0.61130799  0.23568949     0.02050
H1143       H  0.48895085  0.61975960  0.28846339     0.15030
H1144       H  0.51692809  0.63186964  0.20236465     0.15030
C1145       C  0.58010713  0.59426102  0.22486675     0.36680
C1146       C  0.42535608  0.65661051  0.26588669     0.36590
N1147       N  0.61059348  0.58015605  0.21629371    -0.43660
N1148       N  0.39446190  0.67003029  0.27441003    -0.43660
C1149       C  0.78603083  0.98232042  0.23169435    -0.00070
C1150       C  0.74326276  0.96780231  0.23016134    -0.11940
C1151       C  0.71002206  0.98375395  0.24422939     0.02170
C1152       C  0.71926504  0.51488138  0.26059042    -0.00160
C1153       C  0.76203578  0.52940390  0.26212134    -0.11880
C1154       C  0.79522711  0.51360604  0.24795547     0.02050
H1155       H  0.73547832  0.94415416  0.21763091     0.15030
H1156       H  0.76980016  0.55314913  0.27459276     0.15030
C1157       C  0.83836553  0.52996999  0.25084448     0.36680
C1158       C  0.66673463  0.96791674  0.24100756     0.36590
N1159       N  0.87287518  0.54319052  0.25322069    -0.43660
N1160       N  0.63207429  0.95521927  0.23832819    -0.43660
C1161       C  0.63358742  0.65714193  0.35335317    -0.00070
C1162       C  0.60067960  0.65921485  0.37055788    -0.11940
C1163       C  0.60045268  0.68950505  0.38770174     0.02170
C1164       C  0.63384337  0.71862003  0.38803222    -0.00160
C1165       C  0.66721820  0.71639825  0.37120582    -0.11880
C1166       C  0.66716092  0.68632359  0.35376852     0.02050
H1167       H  0.57487620  0.63693172  0.37074357     0.15030
H1168       H  0.69272202  0.73898091  0.37123759     0.15030
C1169       C  0.70117894  0.68712091  0.33621657     0.36680
C1170       C  0.56626942  0.68919617  0.40522736     0.36590
N1171       N  0.72838515  0.68803472  0.32210388    -0.43660
N1172       N  0.53898041  0.68888782  0.41930486    -0.43660
C1173       C  0.62475800  0.90496857  0.38658422    -0.00070
C1174       C  0.58843432  0.90945848  0.37196554    -0.11940
C1175       C  0.58713680  0.93966037  0.35473485     0.02170
C1176       C  0.62230407  0.96691068  0.35244620    -0.00160
C1177       C  0.65843416  0.96233551  0.36727927    -0.11880
C1178       C  0.66012960  0.93168545  0.38404120     0.02050
H1179       H  0.56137242  0.88868071  0.37363432     0.15030
H1180       H  0.68577915  0.98283078  0.36582634     0.15030
C1181       C  0.69823186  0.92914458  0.39877022     0.36680
C1182       C  0.54965226  0.94131254  0.33955162     0.36590
N1183       N  0.72889023  0.92716857  0.41045816    -0.43660
N1184       N  0.51964719  0.94228069  0.32732516    -0.43660
loop_ 
_geom_bond_atom_site_label_1 
_geom_bond_atom_site_label_2 
_geom_bond_distance 
_geom_bond_site_symmetry_2 
_ccdc_geom_bond_type 
In1           O3   2.235       .  S
In1           O4   2.252       .  S
In1          O12   2.235       .  S
In1           O6   2.247       .  S
In1           O8   2.259       .  S
In1           O9   2.254       .  S
In1          O10   2.230       .  S
In1          O13   2.223       .  S
C2            O8   1.263       .  A
C2           O10   1.260       .  A
C2          C569   1.487       .  S
O3           C11   1.260       .  A
O4           C11   1.262       .  A
C5           O12   1.262       .  A
C5            O6   1.265       .  A
C5          C560   1.489       .  S
C7            O9   1.263       .  A
C7           O13   1.261       .  A
C7         C1176   1.486   1_545  S
C11         C545   1.476       .  S
In14         O16   2.231       .  S
In14         O17   2.246       .  S
In14         O25   2.233       .  S
In14         O19   2.251       .  S
In14         O21   2.258       .  S
In14         O22   2.252       .  S
In14         O23   2.223       .  S
In14         O26   2.222       .  S
C15          O21   1.264       .  A
C15          O23   1.259       .  A
C15         C572   1.477       .  S
O16          C24   1.261       .  A
O17          C24   1.264       .  A
C18          O25   1.260       .  A
C18          O19   1.265       .  A
C18         C533   1.482       .  S
C20          O22   1.264       .  A
C20          O26   1.260       .  A
C20         C581   1.477       .  S
C24         C524   1.482       .  S
In27         O29   2.224       .  S
In27         O30   2.254       .  S
In27         O38   2.234       .  S
In27         O32   2.248       .  S
In27         O34   2.256       .  S
In27         O35   2.245       .  S
In27         O36   2.217       .  S
In27         O39   2.235       .  S
C28          O34   1.264       .  A
C28          O36   1.259       .  A
C28         C509   1.485       .  S
O29          C37   1.260       .  A
O30          C37   1.263       .  A
C31          O38   1.261       .  A
C31          O32   1.263       .  A
C31         C473   1.482       .  S
C33          O35   1.264       .  A
C33          O39   1.261       .  A
C33         C485   1.488       .  S
C37         C497   1.483       .  S
In40         O42   2.213       .  S
In40         O43   2.259       .  S
In40         O51   2.231       .  S
In40         O45   2.258       .  S
In40         O47   2.246       .  S
In40         O48   2.258       .  S
In40         O49   2.225       .  S
In40         O52   2.236       .  S
C41          O47   1.264       .  A
C41          O49   1.262       .  A
C41        C1104   1.475       .  S
O42          C50   1.258       .  A
O43          C50   1.265       .  A
C44          O51   1.259       .  A
C44          O45   1.263       .  A
C44         C536   1.482       .  S
C46          O48   1.263       .  A
C46          O52   1.259       .  A
C46         C461   1.475       .  S
C50         C500   1.483       .  S
In53         O55   2.224       .  S
In53         O56   2.248       .  S
In53         O64   2.236       .  S
In53         O58   2.251       .  S
In53         O60   2.241       .  S
In53         O61   2.253       .  S
In53         O62   2.232       .  S
In53         O65   2.236       .  S
C54          O60   1.264       .  A
C54          O62   1.261       .  A
C54        C1041   1.470       .  S
O55          C63   1.261       .  A
O56          C63   1.265       .  A
C57          O64   1.258       .  A
C57          O58   1.261       .  A
C57         C416   1.467       .  S
C59          O61   1.262       .  A
C59          O65   1.258       .  A
C59         C428   1.478       .  S
C63         C440   1.483       .  S
In66         O68   2.233       .  S
In66         O69   2.259       .  S
In66         O77   2.233       .  S
In66         O71   2.259       .  S
In66         O73   2.243       .  S
In66         O74   2.240       .  S
In66         O75   2.229       .  S
In66         O78   2.235       .  S
C67          O73   1.265       .  A
C67          O75   1.262       .  A
C67         C437   1.472       .  S
O68          C76   1.256       .  A
O69          C76   1.261       .  A
C70          O77   1.257       .  A
C70          O71   1.261       .  A
C70         C548   1.475       .  S
C72          O74   1.265       .  A
C72          O78   1.263       .  A
C72         C404   1.484       .  S
C76         C452   1.473       .  S
In79         O81   2.220       .  S
In79         O82   2.260       .  S
In79         O90   2.241       .  S
In79         O84   2.246       .  S
In79         O86   2.250       .  S
In79         O87   2.245       .  S
In79         O88   2.230       .  S
In79         O91   2.232       .  S
C80          O86   1.263       .  A
C80          O88   1.259       .  A
C80         C380   1.475       .  S
O81          C89   1.258       .  A
O82          C89   1.264       .  A
C83          O90   1.262       .  A
C83          O84   1.263       .  A
C83         C356   1.488       .  S
C85          O87   1.265       .  A
C85          O91   1.261       .  A
C85         C368   1.488       .  S
C89         C984   1.482       .  S
In92         O94   2.225       .  S
In92         O95   2.255       .  S
In92        O103   2.242       .  S
In92         O97   2.247       .  S
In92         O99   2.247       .  S
In92        O100   2.245       .  S
In92        O101   2.230       .  S
In92        O104   2.238       .  S
C93          O99   1.263       .  A
C93         O101   1.261       .  A
C93         C377   1.486       .  S
O94         C102   1.260       .  A
O95         C102   1.263       .  A
C96         O103   1.261       .  A
C96          O97   1.262       .  A
C96         C344   1.488       .  S
C98         O100   1.262       .  A
C98         O104   1.260       .  A
C98         C521   1.483       .  S
C102        C389   1.485       .  S
In105       O107   2.235       .  S
In105       O108   2.250       .  S
In105       O116   2.236       .  S
In105       O110   2.246       .  S
In105       O112   2.246       .  S
In105       O113   2.253       .  S
In105       O114   2.229       .  S
In105       O117   2.228       .  S
C106        O112   1.264       .  A
C106        O114   1.260       .  A
C106        C921   1.479   1_545  S
O107        C115   1.259       .  A
O108        C115   1.263       .  A
C109        O116   1.262       .  A
C109        O110   1.263       .  A
C109        C308   1.487       .  S
C111        O113   1.264       .  A
C111        O117   1.260       .  A
C111        C320   1.478       .  S
C115        C425   1.480       .  S
In118       O120   2.232       .  S
In118       O121   2.247       .  S
In118       O129   2.239       .  S
In118       O123   2.245       .  S
In118       O125   2.243       .  S
In118       O126   2.260       .  S
In118       O127   2.232       .  S
In118       O130   2.221       .  S
C119        O125   1.262       .  A
C119        O127   1.260       .  A
C119        C332   1.465       .  S
O120        C128   1.261       .  A
O121        C128   1.265       .  A
C122        O129   1.261       .  A
C122        O123   1.262       .  A
C122        C476   1.482       .  S
C124        O126   1.264       .  A
C124        O130   1.258       .  A
C124        C317   1.486       .  S
C128        C365   1.488       .  S
In131       O133   2.234       .  S
In131       O134   2.246       .  S
In131       O142   2.238       .  S
In131       O136   2.244       .  S
In131       O138   2.257       .  S
In131       O139   2.256       .  S
In131       O140   2.231       .  S
In131       O143   2.230       .  S
C132        O138   1.262       .  A
C132        O140   1.258       .  A
C132        C296   1.478       .  S
O133        C141   1.261       .  A
O134        C141   1.265       .  A
C135        O142   1.263       .  A
C135        O136   1.264       .  A
C135        C353   1.489       .  S
C137        O139   1.261       .  A
C137        O143   1.257       .  A
C137        C873   1.469   1_545  S
C141        C488   1.489       .  S
In144       O146   2.234       .  S
In144       O147   2.253       .  S
In144       O155   2.234       .  S
In144       O149   2.257       .  S
In144       O151   2.248       .  S
In144       O152   2.244       .  S
In144       O153   2.224       .  S
In144       O156   2.231       .  S
C145        O151   1.266       .  A
C145        O153   1.262       .  A
C145        C293   1.487       .  S
O146        C154   1.258       .  A
O147        C154   1.261       .  A
C148        O155   1.257       .  A
C148        O149   1.261       .  A
C148        C413   1.468       .  S
C150        O152   1.264       .  A
C150        O156   1.262       .  A
C150        C284   1.479       .  S
C154        C272   1.469       .  S
In157       O159   2.228       .  S
In157       O160   2.259       .  S
In157       O168   2.236       .  S
In157       O162   2.247       .  S
In157       O164   2.257       .  S
In157       O165   2.244       .  S
In157       O166   2.227       .  S
In157       O169   2.234       .  S
C158        O164   1.262       .  A
C158        O166   1.258       .  A
C158        C248   1.473       .  S
O159        C167   1.258       .  A
O160        C167   1.262       .  A
C161        O168   1.262       .  A
C161        O162   1.265       .  A
C161        C557   1.489       .  S
C163        O165   1.266       .  A
C163        O169   1.262       .  A
C163        C233   1.489       .  S
C167        C849   1.475       .  S
In170       O172   2.222       .  S
In170       O173   2.258       .  S
In170       O181   2.240       .  S
In170       O175   2.250       .  S
In170       O177   2.244       .  S
In170       O178   2.253       .  S
In170       O179   2.229       .  S
In170       O182   2.232       .  S
C171        O177   1.264       .  A
C171        O179   1.263       .  A
C171        C245   1.484       .  S
O172        C180   1.259       .  A
O173        C180   1.264       .  A
C174        O181   1.260       .  A
C174        O175   1.261       .  A
C174        C305   1.486       .  S
C176        O178   1.262       .  A
C176        O182   1.259       .  A
C176        C269   1.470       .  S
C180        C260   1.484       .  S
In183       O185   2.236       .  S
In183       O186   2.257       .  S
In183       O194   2.240       .  S
In183       O188   2.253       .  S
In183       O190   2.243       .  S
In183       O191   2.254       .  S
In183       O192   2.230       .  S
In183       O195   2.226       .  S
C184        O190   1.264       .  A
C184        O192   1.261       .  A
C184        C816   1.472   1_545  S
O185        C193   1.257       .  A
O186        C193   1.263       .  A
C187        O194   1.260       .  A
C187        O188   1.262       .  A
C187        C341   1.489       .  S
C189        O191   1.265       .  A
C189        O195   1.261       .  A
C189        C212   1.486       .  S
C193        C464   1.474       .  S
In196       O198   2.237       .  S
In196       O199   2.248       .  S
In196       O207   2.230       .  S
In196       O201   2.260       .  S
In196       O203   2.251       .  S
In196       O204   2.246       .  S
In196       O205   2.222       .  S
In196       O208   2.235       .  S
C197        O203   1.266       .  A
C197        O205   1.262       .  A
C197        C209   1.486       .  S
O198        C206   1.261       .  A
O199        C206   1.263       .  A
C200        O207   1.258       .  A
C200        O201   1.264       .  A
C200        C236   1.489       .  S
C202        O204   1.262       .  A
C202        O208   1.259       .  A
C202        C221   1.471       .  S
C206        C401   1.485       .  S
C209        C210   1.406       .  A
C209        C214   1.415       .  A
C210        C211   1.403       .  A
C210        H215   1.085       .  S
C211        C212   1.414       .  A
C211        C218   1.444       .  S
C212        C213   1.405       .  A
C213        C214   1.398       .  A
C213        H216   1.085       .  S
C214        C217   1.445       .  S
C217        N219   1.157       .  T
C218        N220   1.157       .  T
C221        C222   1.402       .  A
C221        C226   1.409       .  A
C222        C223   1.400       .  A
C222        H227   1.085       .  S
C223        C224   1.411       .  A
C223        C230   1.444       .  S
C224        C776   1.472       .  S
C224        C225   1.403       .  A
C225        C226   1.400       .  A
C225        H820   1.085       .  S
C226        C229   1.444       .  S
H228        C817   1.085   1_545  S
C229        N231   1.157       .  T
C230        N232   1.157       .  T
C233        C234   1.404   1_655  A
C233        C238   1.417       .  A
C234        C235   1.400       .  A
C234        H239   1.085       .  S
C235        C236   1.417       .  A
C235        C242   1.445       .  S
C236        C237   1.405   1_455  A
C237        C238   1.402       .  A
C237        H240   1.085       .  S
C238        C241   1.444       .  S
C241        N243   1.157       .  T
C242        N244   1.157       .  T
C245        C246   1.406       .  A
C245        C250   1.416       .  A
C246        C247   1.398       .  A
C246        H251   1.085       .  S
C247        C248   1.409       .  A
C247        C254   1.445       .  S
C248        C249   1.401       .  A
C249        C250   1.402       .  A
C249        H252   1.085       .  S
C250        C253   1.443       .  S
C253        N255   1.157       .  T
C254        N256   1.157       .  T
C257        C759   1.475   1_545  S
C257        C258   1.401       .  A
C257        C262   1.410       .  A
C258        C259   1.397       .  A
C258        H263   1.085       .  S
C259        C260   1.416       .  A
C259        C266   1.445       .  S
C260        C261   1.407       .  A
C261        C262   1.403       .  A
C261        H264   1.084       .  S
C262        C857   1.444       .  S
C265        C854   1.444       .  S
C265        N267   1.157       .  T
C266        N268   1.157       .  T
C269        C270   1.401   1_554  A
C269        C274   1.411       .  A
C270        C271   1.401   1_655  A
C270        H275   1.085       .  S
C271        C272   1.411       .  A
C271        C278   1.445       .  S
C272        C273   1.400   1_556  A
C273        C274   1.400   1_455  A
C273        H276   1.085       .  S
C274        C277   1.445       .  S
C277        N279   1.157       .  T
C278        N280   1.157       .  T
C281        C729   1.469       .  S
C281        C282   1.401       .  A
C281        C286   1.408       .  A
C282        C283   1.402       .  A
C282        H879   1.085       .  S
C283        C284   1.414       .  A
C283        C290   1.444       .  S
C284        C285   1.405       .  A
C285        C286   1.398       .  A
C285        H288   1.085       .  S
C286        C289   1.445       .  S
H287        C874   1.085       .  S
C289        N291   1.157       .  T
C290        N292   1.157       .  T
C293        C294   1.407       .  A
C293        C298   1.417       .  A
C294        C295   1.403       .  A
C294        H299   1.084       .  S
C295        C296   1.410       .  A
C295        C302   1.444       .  S
C296        C297   1.402       .  A
C297        C298   1.398       .  A
C297        H300   1.085       .  S
C298        C301   1.445       .  S
C301        N303   1.157       .  T
C302        N304   1.157       .  T
C305        C306   1.405   1_554  A
C305        C310   1.414       .  A
C306        C307   1.401       .  A
C306        H311   1.085       .  S
C307        C308   1.415       .  A
C307        C314   1.444       .  S
C308        C309   1.406       .  A
C309        C310   1.401   1_556  A
C309        H312   1.085   1_556  S
C310        C313   1.444       .  S
C313        N315   1.157       .  T
C314        N316   1.157       .  T
C317        C318   1.407       .  A
C317        C322   1.418       .  A
C318        C319   1.403       .  A
C318        H323   1.084       .  S
C319        C320   1.411       .  A
C319        C326   1.444       .  S
C320        C321   1.401       .  A
C321        C322   1.397       .  A
C321        H324   1.085       .  S
C322        C325   1.445       .  S
C325        N327   1.157       .  T
C326        N328   1.157       .  T
C329        C698   1.479       .  S
C329        C330   1.406       .  A
C329        C334   1.414       .  A
C330        C331   1.398       .  A
C330        H927   1.085       .  S
C331        C332   1.406       .  A
C331        C338   1.444       .  S
C332        C333   1.400       .  A
C333        C334   1.401       .  A
C333        H336   1.086       .  S
C334        C337   1.444       .  S
H335        C922   1.085   1_545  S
C337        N339   1.157       .  T
C338        N340   1.157       .  T
C341        C342   1.406       .  A
C341        C346   1.415       .  A
C342        C343   1.401       .  A
C342        H347   1.085       .  S
C343        C344   1.415       .  A
C343        C350   1.444       .  S
C344        C345   1.406       .  A
C345        C346   1.402       .  A
C345        H348   1.085       .  S
C346        C349   1.444       .  S
C349        N351   1.157       .  T
C350        N352   1.157       .  T
C353        C358   1.415       .  A
C353        C946   1.406   1_545  A
C354        C355   1.402       .  A
C354        C945   1.406       .  A
C354        H359   1.085       .  S
C355        C356   1.415       .  A
C355        C362   1.444       .  S
C356        C949   1.406       .  A
C357        C358   1.402       .  A
C357        C948   1.406   1_545  A
C357        H360   1.085       .  S
C358        C361   1.444       .  S
C361        N363   1.157       .  T
C362        N364   1.157       .  T
C365        C366   1.405       .  A
C365        C370   1.417       .  A
C366        C367   1.401       .  A
C366        H371   1.085       .  S
C367        C368   1.417       .  A
C367        C374   1.444       .  S
C368        C369   1.405       .  A
C369        C370   1.401       .  A
C369        H372   1.085       .  S
C370        C373   1.444       .  S
C373        N375   1.157       .  T
C374        N376   1.157       .  T
C377        C378   1.407       .  A
C377        C382   1.416       .  A
C378        C379   1.398       .  A
C378        H383   1.085       .  S
C379        C380   1.410       .  A
C379        C386   1.445       .  S
C380        C381   1.402       .  A
C381        C382   1.402       .  A
C381        H384   1.085       .  S
C382        C385   1.444       .  S
C385        N387   1.157       .  T
C386        N388   1.157       .  T
C389        C390   1.404       .  A
C389        C394   1.415       .  A
C390        C391   1.396       .  A
C390        H395   1.085       .  S
C391        C392   1.414       .  A
C391        C398   1.445       .  S
C392        C681   1.482   1_545  S
C392        C393   1.405       .  A
C393        C394   1.404       .  A
C393        H396   1.085       .  S
C394        C397   1.444       .  S
C397        N399   1.157       .  T
C398        N400   1.157       .  T
C401        C402   1.404       .  A
C401        C406   1.415       .  A
C402        C403   1.401       .  A
C402        H407   1.085       .  S
C403        C404   1.415       .  A
C403        C410   1.444       .  S
C404        C405   1.404       .  A
C405        C406   1.401       .  A
C405        H408   1.085       .  S
C406        C409   1.444       .  S
C409        N411   1.157       .  T
C410        N412   1.157       .  T
C413        C414   1.401   1_556  A
C413        C418   1.410       .  A
C414        C415   1.401       .  A
C414        H419   1.085       .  S
C415        C416   1.409       .  A
C415        C422   1.444       .  S
C416        C417   1.400   1_554  A
C417        C418   1.400       .  A
C417        H420   1.085       .  S
C418        C421   1.444       .  S
C421        N423   1.157       .  T
C422        N424   1.157       .  T
C425        C430   1.412       .  A
C425       C1018   1.405   1_545  A
C426        C427   1.400       .  A
C426       C1017   1.405       .  A
C426        H431   1.085       .  S
C427        C428   1.411   1_556  A
C427        C434   1.444       .  S
C428       C1021   1.405       .  A
C429        C430   1.401   1_554  A
C429       C1020   1.405   1_545  A
C429        H432   1.085       .  S
C430        C433   1.444       .  S
C433        N435   1.157   1_556  T
C434        N436   1.157       .  T
C437        C438   1.400       .  A
C437        C442   1.409       .  A
C438        C439   1.399       .  A
C438        H443   1.085       .  S
C439        C440   1.416       .  A
C439        C446   1.445       .  S
C440        C441   1.406       .  A
C441        C442   1.402       .  A
C441        H444   1.084       .  S
C442        C445   1.444       .  S
C445        N447   1.157       .  T
C446        N448   1.157       .  T
C449        C646   1.470   1_545  S
C449        C450   1.403       .  A
C449        C454   1.409       .  A
C450        C451   1.400       .  A
C450       H1047   1.085   1_545  S
C451        C452   1.410       .  A
C451        C458   1.444       .  S
C452        C453   1.404       .  A
C453        C454   1.399       .  A
C453        H456   1.085       .  S
C454        C457   1.444       .  S
H455       C1042   1.085       .  S
C457        N459   1.157       .  T
C458        N460   1.157       .  T
C461        C462   1.402       .  A
C461       C1058   1.412       .  A
C462        C463   1.403   1_655  A
C462        H467   1.085       .  S
C463       C1056   1.413       .  A
C463        C470   1.444       .  S
C464        C465   1.400       .  A
C464       C1055   1.413   1_545  A
C465        C466   1.399   1_455  A
C465        H468   1.086       .  S
C466       C1053   1.412   1_545  A
C466        C469   1.442       .  S
C469        N471   1.156       .  T
C470        N472   1.157       .  T
C473        C474   1.404       .  A
C473        C478   1.414       .  A
C474        C475   1.401       .  A
C474        H479   1.084       .  S
C475        C476   1.413       .  A
C475        C482   1.444       .  S
C476        C477   1.404       .  A
C477        C478   1.401       .  A
C477        H480   1.084       .  S
C478        C481   1.444       .  S
C481        N483   1.157       .  T
C482        N484   1.157       .  T
C485        C486   1.405   1_655  A
C485        C490   1.416       .  A
C486        C487   1.401       .  A
C486        H491   1.085       .  S
C487        C488   1.416       .  A
C487        C494   1.444       .  S
C488        C489   1.405   1_455  A
C489        C490   1.401       .  A
C489        H492   1.085       .  S
C490        C493   1.444       .  S
C493        N495   1.157       .  T
C494        N496   1.157       .  T
C497        C498   1.403       .  A
C497        C502   1.414       .  A
C498        C499   1.396       .  A
C498        H503   1.085       .  S
C499        C500   1.416       .  A
C499        C506   1.446       .  S
C500        C501   1.405       .  A
C501        C502   1.404       .  A
C501        H504   1.085       .  S
C502        C505   1.444       .  S
C505        N507   1.157       .  T
C506        N508   1.157       .  T
C509        C510   1.408       .  A
C509        C514   1.417       .  A
C510        C511   1.403       .  A
C510        H515   1.084       .  S
C511        C512   1.410       .  A
C511        C518   1.444       .  S
C512        C633   1.475   1_545  S
C512        C513   1.399       .  A
C513        C514   1.396       .  A
C513        H516   1.082       .  S
C514        C517   1.445       .  S
C517        N519   1.158       .  T
C518       N1112   1.157   1_545  T
N520       C1110   1.157       .  T
C521        C522   1.406       .  A
C521        C526   1.413       .  A
C522        C523   1.401       .  A
C522        H527   1.085       .  S
C523        C524   1.412       .  A
C523        C530   1.444       .  S
C524        C525   1.405       .  A
C525        C526   1.400       .  A
C525        H528   1.085       .  S
C526        C529   1.444       .  S
C529        N531   1.157       .  T
C530        N532   1.157       .  T
C533        C534   1.402       .  A
C533        C538   1.416       .  A
C534        C535   1.401       .  A
C534        H539   1.085       .  S
C535        C536   1.415       .  A
C535        C542   1.445       .  S
C536        C537   1.402       .  A
C537        C538   1.401       .  A
C537        H540   1.085       .  S
C538        C541   1.444       .  S
C541        N543   1.157       .  T
C542        N544   1.157       .  T
C545        C546   1.403       .  A
C545        C550   1.412       .  A
C546        C547   1.401       .  A
C546        H551   1.084       .  S
C547        C548   1.412       .  A
C547        C554   1.445       .  S
C548        C549   1.402       .  A
C549        C550   1.401       .  A
C549        H552   1.084       .  S
C550        C553   1.445       .  S
C553        N555   1.157       .  T
C554        N556   1.157       .  T
C557        C558   1.405       .  A
C557       C1154   1.416       .  A
C558        C559   1.402       .  A
C558        H563   1.085       .  S
C559       C1152   1.416       .  A
C559        C566   1.444       .  S
C560        C561   1.405       .  A
C560       C1151   1.416   1_545  A
C561        C562   1.402       .  A
C561        H564   1.085       .  S
C562       C1149   1.416   1_545  A
C562        C565   1.444       .  S
C565        N567   1.157       .  T
C566        N568   1.157       .  T
C569        C570   1.406       .  A
C569        C574   1.416       .  A
C570        C571   1.398       .  A
C570        H575   1.085       .  S
C571        C572   1.411       .  A
C571        C578   1.446       .  S
C572        C573   1.403       .  A
C573        C574   1.404       .  A
C573        H576   1.085       .  S
C574        C577   1.443       .  S
C577        N579   1.157       .  T
C578        N580   1.157       .  T
C581        C582   1.403       .  A
C581        C586   1.411       .  A
C582        C583   1.403       .  A
C582        H587   1.085       .  S
C583        C584   1.416       .  A
C583        C590   1.443       .  S
C584        C599   1.486       .  S
C584        C585   1.406       .  A
C585        C586   1.396       .  A
C585        H588   1.085       .  S
C586        C589   1.445       .  S
C589        N591   1.157       .  T
C590        N592   1.157       .  T
In593       O595   2.235       .  S
In593       O596   2.252       .  S
In593       O604   2.235       .  S
In593       O598   2.247       .  S
In593       O600   2.259       .  S
In593       O601   2.254       .  S
In593       O602   2.230       .  S
In593       O605   2.223       .  S
C594        O600   1.263       .  A
C594        O602   1.260       .  A
C594       C1161   1.487       .  S
O595        C603   1.260       .  A
O596        C603   1.262       .  A
C597        O604   1.262       .  A
C597        O598   1.265       .  A
C597       C1152   1.489       .  S
C599        O601   1.263       .  A
C599        O605   1.261       .  A
C603       C1137   1.476       .  S
In606       O608   2.231       .  S
In606       O609   2.246       .  S
In606       O617   2.233       .  S
In606       O611   2.251       .  S
In606       O613   2.258       .  S
In606       O614   2.252       .  S
In606       O615   2.223       .  S
In606       O618   2.222       .  S
C607        O613   1.264       .  A
C607        O615   1.259       .  A
C607       C1164   1.477       .  S
O608        C616   1.261       .  A
O609        C616   1.264       .  A
C610        O617   1.260       .  A
C610        O611   1.265       .  A
C610       C1125   1.482       .  S
C612        O614   1.264       .  A
C612        O618   1.260       .  A
C612       C1173   1.477       .  S
C616       C1116   1.482       .  S
In619       O621   2.224       .  S
In619       O622   2.254       .  S
In619       O630   2.234       .  S
In619       O624   2.248       .  S
In619       O626   2.256       .  S
In619       O627   2.245       .  S
In619       O628   2.217       .  S
In619       O631   2.235       .  S
C620        O626   1.264       .  A
C620        O628   1.259       .  A
C620       C1101   1.485       .  S
O621        C629   1.260       .  A
O622        C629   1.263       .  A
C623        O630   1.261       .  A
C623        O624   1.263       .  A
C623       C1065   1.482       .  S
C625        O627   1.264       .  A
C625        O631   1.261       .  A
C625       C1077   1.488       .  S
C629       C1089   1.483       .  S
In632       O634   2.213       .  S
In632       O635   2.259       .  S
In632       O643   2.231       .  S
In632       O637   2.258       .  S
In632       O639   2.246       .  S
In632       O640   2.258       .  S
In632       O641   2.225       .  S
In632       O644   2.236       .  S
C633        O639   1.264       .  A
C633        O641   1.262       .  A
O634        C642   1.258       .  A
O635        C642   1.265       .  A
C636        O643   1.259       .  A
C636        O637   1.263       .  A
C636       C1128   1.482       .  S
C638        O640   1.263       .  A
C638        O644   1.259       .  A
C638       C1053   1.475       .  S
C642       C1092   1.483       .  S
In645       O647   2.224       .  S
In645       O648   2.248       .  S
In645       O656   2.236       .  S
In645       O650   2.251       .  S
In645       O652   2.241       .  S
In645       O653   2.253       .  S
In645       O654   2.232       .  S
In645       O657   2.236       .  S
C646        O652   1.264       .  A
C646        O654   1.261       .  A
O647        C655   1.261       .  A
O648        C655   1.265       .  A
C649        O656   1.258       .  A
C649        O650   1.261       .  A
C649       C1008   1.467       .  S
C651        O653   1.262       .  A
C651        O657   1.258       .  A
C651       C1020   1.478       .  S
C655       C1032   1.483       .  S
In658       O660   2.233       .  S
In658       O661   2.259       .  S
In658       O669   2.233       .  S
In658       O663   2.259       .  S
In658       O665   2.243       .  S
In658       O666   2.240       .  S
In658       O667   2.229       .  S
In658       O670   2.235       .  S
C659        O665   1.265       .  A
C659        O667   1.262       .  A
C659       C1029   1.472       .  S
O660        C668   1.256       .  A
O661        C668   1.261       .  A
C662        O669   1.257       .  A
C662        O663   1.261       .  A
C662       C1140   1.475       .  S
C664        O666   1.265       .  A
C664        O670   1.263       .  A
C664        C996   1.484       .  S
C668       C1044   1.473       .  S
In671       O673   2.220       .  S
In671       O674   2.260       .  S
In671       O682   2.241       .  S
In671       O676   2.246       .  S
In671       O678   2.250       .  S
In671       O679   2.245       .  S
In671       O680   2.230       .  S
In671       O683   2.232       .  S
C672        O678   1.263       .  A
C672        O680   1.259       .  A
C672        C972   1.475       .  S
O673        C681   1.258       .  A
O674        C681   1.264       .  A
C675        O682   1.262       .  A
C675        O676   1.263       .  A
C675        C948   1.488       .  S
C677        O679   1.265       .  A
C677        O683   1.261       .  A
C677        C960   1.488       .  S
In684       O686   2.225       .  S
In684       O687   2.255       .  S
In684       O695   2.242       .  S
In684       O689   2.247       .  S
In684       O691   2.247       .  S
In684       O692   2.245       .  S
In684       O693   2.230       .  S
In684       O696   2.238       .  S
C685        O691   1.263       .  A
C685        O693   1.261       .  A
C685        C969   1.486       .  S
O686        C694   1.260       .  A
O687        C694   1.263       .  A
C688        O695   1.261       .  A
C688        O689   1.262       .  A
C688        C936   1.488       .  S
C690        O692   1.262       .  A
C690        O696   1.260       .  A
C690       C1113   1.483       .  S
C694        C981   1.485       .  S
In697       O699   2.235       .  S
In697       O700   2.250       .  S
In697       O708   2.236       .  S
In697       O702   2.246       .  S
In697       O704   2.246       .  S
In697       O705   2.253       .  S
In697       O706   2.229       .  S
In697       O709   2.228       .  S
C698        O704   1.264       .  A
C698        O706   1.260       .  A
O699        C707   1.259       .  A
O700        C707   1.263       .  A
C701        O708   1.262       .  A
C701        O702   1.263       .  A
C701        C900   1.487       .  S
C703        O705   1.264       .  A
C703        O709   1.260       .  A
C703        C912   1.478       .  S
C707       C1017   1.480       .  S
In710       O712   2.232       .  S
In710       O713   2.247       .  S
In710       O721   2.239       .  S
In710       O715   2.245       .  S
In710       O717   2.243       .  S
In710       O718   2.260       .  S
In710       O719   2.232       .  S
In710       O722   2.221       .  S
C711        O717   1.262       .  A
C711        O719   1.260       .  A
C711        C924   1.465       .  S
O712        C720   1.261       .  A
O713        C720   1.265       .  A
C714        O721   1.261       .  A
C714        O715   1.262       .  A
C714       C1068   1.482       .  S
C716        O718   1.264       .  A
C716        O722   1.258       .  A
C716        C909   1.486       .  S
C720        C957   1.488       .  S
In723       O725   2.234       .  S
In723       O726   2.246       .  S
In723       O734   2.238       .  S
In723       O728   2.244       .  S
In723       O730   2.257       .  S
In723       O731   2.256       .  S
In723       O732   2.231       .  S
In723       O735   2.230       .  S
C724        O730   1.262       .  A
C724        O732   1.258       .  A
C724        C888   1.478       .  S
O725        C733   1.261       .  A
O726        C733   1.265       .  A
C727        O734   1.263       .  A
C727        O728   1.264       .  A
C727        C945   1.489       .  S
C729        O731   1.261       .  A
C729        O735   1.257       .  A
C733       C1080   1.489       .  S
In736       O738   2.234       .  S
In736       O739   2.253       .  S
In736       O747   2.234       .  S
In736       O741   2.257       .  S
In736       O743   2.248       .  S
In736       O744   2.244       .  S
In736       O745   2.224       .  S
In736       O748   2.231       .  S
C737        O743   1.266       .  A
C737        O745   1.262       .  A
C737        C885   1.487       .  S
O738        C746   1.258       .  A
O739        C746   1.261       .  A
C740        O747   1.257       .  A
C740        O741   1.261       .  A
C740       C1005   1.468       .  S
C742        O744   1.264       .  A
C742        O748   1.262       .  A
C742        C876   1.479       .  S
C746        C864   1.469       .  S
In749       O751   2.228       .  S
In749       O752   2.259       .  S
In749       O760   2.236       .  S
In749       O754   2.247       .  S
In749       O756   2.257       .  S
In749       O757   2.244       .  S
In749       O758   2.227       .  S
In749       O761   2.234       .  S
C750        O756   1.262       .  A
C750        O758   1.258       .  A
C750        C840   1.473       .  S
O751        C759   1.258       .  A
O752        C759   1.262       .  A
C753        O760   1.262       .  A
C753        O754   1.265       .  A
C753       C1149   1.489       .  S
C755        O757   1.266       .  A
C755        O761   1.262       .  A
C755        C825   1.489       .  S
In762       O764   2.222       .  S
In762       O765   2.258       .  S
In762       O773   2.240       .  S
In762       O767   2.250       .  S
In762       O769   2.244       .  S
In762       O770   2.253       .  S
In762       O771   2.229       .  S
In762       O774   2.232       .  S
C763        O769   1.264       .  A
C763        O771   1.263       .  A
C763        C837   1.484       .  S
O764        C772   1.259       .  A
O765        C772   1.264       .  A
C766        O773   1.260       .  A
C766        O767   1.261       .  A
C766        C897   1.486       .  S
C768        O770   1.262       .  A
C768        O774   1.259       .  A
C768        C861   1.470       .  S
C772        C852   1.484       .  S
In775       O777   2.236       .  S
In775       O778   2.257       .  S
In775       O786   2.240       .  S
In775       O780   2.253       .  S
In775       O782   2.243       .  S
In775       O783   2.254       .  S
In775       O784   2.230       .  S
In775       O787   2.226       .  S
C776        O782   1.264       .  A
C776        O784   1.261       .  A
O777        C785   1.257       .  A
O778        C785   1.263       .  A
C779        O786   1.260       .  A
C779        O780   1.262       .  A
C779        C933   1.489       .  S
C781        O783   1.265       .  A
C781        O787   1.261       .  A
C781        C804   1.486       .  S
C785       C1056   1.474       .  S
In788       O790   2.237       .  S
In788       O791   2.248       .  S
In788       O799   2.230       .  S
In788       O793   2.260       .  S
In788       O795   2.251       .  S
In788       O796   2.246       .  S
In788       O797   2.222       .  S
In788       O800   2.235       .  S
C789        O795   1.266       .  A
C789        O797   1.262       .  A
C789        C801   1.486       .  S
O790        C798   1.261       .  A
O791        C798   1.263       .  A
C792        O799   1.258       .  A
C792        O793   1.264       .  A
C792        C828   1.489       .  S
C794        O796   1.262       .  A
C794        O800   1.259       .  A
C794        C813   1.471       .  S
C798        C993   1.485       .  S
C801        C802   1.406       .  A
C801        C806   1.415       .  A
C802        C803   1.403       .  A
C802        H807   1.085       .  S
C803        C804   1.414       .  A
C803        C810   1.444       .  S
C804        C805   1.405       .  A
C805        C806   1.398       .  A
C805        H808   1.085       .  S
C806        C809   1.445       .  S
C809        N811   1.157       .  T
C810        N812   1.157       .  T
C813        C814   1.402       .  A
C813        C818   1.409       .  A
C814        C815   1.400       .  A
C814        H819   1.085       .  S
C815        C816   1.411       .  A
C815        C822   1.444       .  S
C816        C817   1.403       .  A
C817        C818   1.400       .  A
C818        C821   1.444       .  S
C821        N823   1.157       .  T
C822        N824   1.157       .  T
C825        C826   1.404   1_655  A
C825        C830   1.417       .  A
C826        C827   1.400       .  A
C826        H831   1.085       .  S
C827        C828   1.417       .  A
C827        C834   1.445       .  S
C828        C829   1.405   1_455  A
C829        C830   1.402       .  A
C829        H832   1.085       .  S
C830        C833   1.444       .  S
C833        N835   1.157       .  T
C834        N836   1.157       .  T
C837        C838   1.406       .  A
C837        C842   1.416       .  A
C838        C839   1.398       .  A
C838        H843   1.085       .  S
C839        C840   1.409       .  A
C839        C846   1.445       .  S
C840        C841   1.401       .  A
C841        C842   1.402       .  A
C841        H844   1.085       .  S
C842        C845   1.443       .  S
C845        N847   1.157       .  T
C846        N848   1.157       .  T
C849        C850   1.401       .  A
C849        C854   1.410       .  A
C850        C851   1.397       .  A
C850        H855   1.085       .  S
C851        C852   1.416       .  A
C851        C858   1.445       .  S
C852        C853   1.407       .  A
C853        C854   1.403       .  A
C853        H856   1.084       .  S
C857        N859   1.157   1_545  T
C858        N860   1.157       .  T
C861        C862   1.401   1_554  A
C861        C866   1.411       .  A
C862        C863   1.401   1_655  A
C862        H867   1.085       .  S
C863        C864   1.411       .  A
C863        C870   1.445       .  S
C864        C865   1.400   1_556  A
C865        C866   1.400   1_455  A
C865        H868   1.085       .  S
C866        C869   1.445       .  S
C869        N871   1.157       .  T
C870        N872   1.157       .  T
C873        C874   1.401       .  A
C873        C878   1.408       .  A
C874        C875   1.402       .  A
C875        C876   1.414       .  A
C875        C882   1.444       .  S
C876        C877   1.405       .  A
C877        C878   1.398       .  A
C877        H880   1.085       .  S
C878        C881   1.445       .  S
C881        N883   1.157       .  T
C882        N884   1.157       .  T
C885        C886   1.407       .  A
C885        C890   1.417       .  A
C886        C887   1.403       .  A
C886        H891   1.084       .  S
C887        C888   1.410       .  A
C887        C894   1.444       .  S
C888        C889   1.402       .  A
C889        C890   1.398       .  A
C889        H892   1.085       .  S
C890        C893   1.445       .  S
C893        N895   1.157       .  T
C894        N896   1.157       .  T
C897        C898   1.405   1_554  A
C897        C902   1.414       .  A
C898        C899   1.401       .  A
C898        H903   1.085       .  S
C899        C900   1.415       .  A
C899        C906   1.444       .  S
C900        C901   1.406       .  A
C901        C902   1.401   1_556  A
C901        H904   1.085   1_556  S
C902        C905   1.444       .  S
C905        N907   1.157       .  T
C906        N908   1.157       .  T
C909        C910   1.407       .  A
C909        C914   1.418       .  A
C910        C911   1.403       .  A
C910        H915   1.084       .  S
C911        C912   1.411       .  A
C911        C918   1.444       .  S
C912        C913   1.401       .  A
C913        C914   1.397       .  A
C913        H916   1.085       .  S
C914        C917   1.445       .  S
C917        N919   1.157       .  T
C918        N920   1.157       .  T
C921        C922   1.406       .  A
C921        C926   1.414       .  A
C922        C923   1.398       .  A
C923        C924   1.406       .  A
C923        C930   1.444       .  S
C924        C925   1.400       .  A
C925        C926   1.401       .  A
C925        H928   1.086       .  S
C926        C929   1.444       .  S
C929        N931   1.157       .  T
C930        N932   1.157       .  T
C933        C934   1.406       .  A
C933        C938   1.415       .  A
C934        C935   1.401       .  A
C934        H939   1.085       .  S
C935        C936   1.415       .  A
C935        C942   1.444       .  S
C936        C937   1.406       .  A
C937        C938   1.402       .  A
C937        H940   1.085       .  S
C938        C941   1.444       .  S
C941        N943   1.157       .  T
C942        N944   1.157       .  T
C945        C950   1.415       .  A
C946        C947   1.402       .  A
C946        H951   1.085       .  S
C947        C948   1.415       .  A
C947        C954   1.444       .  S
C949        C950   1.402       .  A
C949        H952   1.085       .  S
C950        C953   1.444       .  S
C953        N955   1.157       .  T
C954        N956   1.157       .  T
C957        C958   1.405       .  A
C957        C962   1.417       .  A
C958        C959   1.401       .  A
C958        H963   1.085       .  S
C959        C960   1.417       .  A
C959        C966   1.444       .  S
C960        C961   1.405       .  A
C961        C962   1.401       .  A
C961        H964   1.085       .  S
C962        C965   1.444       .  S
C965        N967   1.157       .  T
C966        N968   1.157       .  T
C969        C970   1.407       .  A
C969        C974   1.416       .  A
C970        C971   1.398       .  A
C970        H975   1.085       .  S
C971        C972   1.410       .  A
C971        C978   1.445       .  S
C972        C973   1.402       .  A
C973        C974   1.402       .  A
C973        H976   1.085       .  S
C974        C977   1.444       .  S
C977        N979   1.157       .  T
C978        N980   1.157       .  T
C981        C982   1.404       .  A
C981        C986   1.415       .  A
C982        C983   1.396       .  A
C982        H987   1.085       .  S
C983        C984   1.414       .  A
C983        C990   1.445       .  S
C984        C985   1.405       .  A
C985        C986   1.404       .  A
C985        H988   1.085       .  S
C986        C989   1.444       .  S
C989        N991   1.157       .  T
C990        N992   1.157       .  T
C993        C994   1.404       .  A
C993        C998   1.415       .  A
C994        C995   1.401       .  A
C994        H999   1.085       .  S
C995        C996   1.415       .  A
C995       C1002   1.444       .  S
C996        C997   1.404       .  A
C997        C998   1.401       .  A
C997       H1000   1.085       .  S
C998       C1001   1.444       .  S
C1001      N1003   1.157       .  T
C1002      N1004   1.157       .  T
C1005      C1006   1.401   1_556  A
C1005      C1010   1.410       .  A
C1006      C1007   1.401       .  A
C1006      H1011   1.085       .  S
C1007      C1008   1.409       .  A
C1007      C1014   1.444       .  S
C1008      C1009   1.400   1_554  A
C1009      C1010   1.400       .  A
C1009      H1012   1.085       .  S
C1010      C1013   1.444       .  S
C1013      N1015   1.157       .  T
C1014      N1016   1.157       .  T
C1017      C1022   1.412       .  A
C1018      C1019   1.400       .  A
C1018      H1023   1.085       .  S
C1019      C1020   1.411   1_556  A
C1019      C1026   1.444       .  S
C1021      C1022   1.401   1_554  A
C1021      H1024   1.085       .  S
C1022      C1025   1.444       .  S
C1025      N1027   1.157   1_556  T
C1026      N1028   1.157       .  T
C1029      C1030   1.400       .  A
C1029      C1034   1.409       .  A
C1030      C1031   1.399       .  A
C1030      H1035   1.085       .  S
C1031      C1032   1.416       .  A
C1031      C1038   1.445       .  S
C1032      C1033   1.406       .  A
C1033      C1034   1.402       .  A
C1033      H1036   1.084       .  S
C1034      C1037   1.444       .  S
C1037      N1039   1.157       .  T
C1038      N1040   1.157       .  T
C1041      C1042   1.403       .  A
C1041      C1046   1.409       .  A
C1042      C1043   1.400       .  A
C1043      C1044   1.410       .  A
C1043      C1050   1.444       .  S
C1044      C1045   1.404       .  A
C1045      C1046   1.399       .  A
C1045      H1048   1.085       .  S
C1046      C1049   1.444       .  S
C1049      N1051   1.157       .  T
C1050      N1052   1.157       .  T
C1053      C1054   1.402       .  A
C1054      C1055   1.403   1_655  A
C1054      H1059   1.085       .  S
C1055      C1062   1.444       .  S
C1056      C1057   1.400       .  A
C1057      C1058   1.399   1_455  A
C1057      H1060   1.086       .  S
C1058      C1061   1.442       .  S
C1061      N1063   1.156       .  T
C1062      N1064   1.157       .  T
C1065      C1066   1.404       .  A
C1065      C1070   1.414       .  A
C1066      C1067   1.401       .  A
C1066      H1071   1.084       .  S
C1067      C1068   1.413       .  A
C1067      C1074   1.444       .  S
C1068      C1069   1.404       .  A
C1069      C1070   1.401       .  A
C1069      H1072   1.084       .  S
C1070      C1073   1.444       .  S
C1073      N1075   1.157       .  T
C1074      N1076   1.157       .  T
C1077      C1078   1.405   1_655  A
C1077      C1082   1.416       .  A
C1078      C1079   1.401       .  A
C1078      H1083   1.085       .  S
C1079      C1080   1.416       .  A
C1079      C1086   1.444       .  S
C1080      C1081   1.405   1_455  A
C1081      C1082   1.401       .  A
C1081      H1084   1.085       .  S
C1082      C1085   1.444       .  S
C1085      N1087   1.157       .  T
C1086      N1088   1.157       .  T
C1089      C1090   1.403       .  A
C1089      C1094   1.414       .  A
C1090      C1091   1.396       .  A
C1090      H1095   1.085       .  S
C1091      C1092   1.416       .  A
C1091      C1098   1.446       .  S
C1092      C1093   1.405       .  A
C1093      C1094   1.404       .  A
C1093      H1096   1.085       .  S
C1094      C1097   1.444       .  S
C1097      N1099   1.157       .  T
C1098      N1100   1.157       .  T
C1101      C1102   1.408       .  A
C1101      C1106   1.417       .  A
C1102      C1103   1.403       .  A
C1102      H1107   1.084       .  S
C1103      C1104   1.410       .  A
C1103      C1110   1.444       .  S
C1104      C1105   1.399       .  A
C1105      C1106   1.396       .  A
C1105      H1108   1.082       .  S
C1106      C1109   1.445       .  S
C1109      N1111   1.158       .  T
C1113      C1114   1.406       .  A
C1113      C1118   1.413       .  A
C1114      C1115   1.401       .  A
C1114      H1119   1.085       .  S
C1115      C1116   1.412       .  A
C1115      C1122   1.444       .  S
C1116      C1117   1.405       .  A
C1117      C1118   1.400       .  A
C1117      H1120   1.085       .  S
C1118      C1121   1.444       .  S
C1121      N1123   1.157       .  T
C1122      N1124   1.157       .  T
C1125      C1126   1.402       .  A
C1125      C1130   1.416       .  A
C1126      C1127   1.401       .  A
C1126      H1131   1.085       .  S
C1127      C1128   1.415       .  A
C1127      C1134   1.445       .  S
C1128      C1129   1.402       .  A
C1129      C1130   1.401       .  A
C1129      H1132   1.085       .  S
C1130      C1133   1.444       .  S
C1133      N1135   1.157       .  T
C1134      N1136   1.157       .  T
C1137      C1138   1.403       .  A
C1137      C1142   1.412       .  A
C1138      C1139   1.401       .  A
C1138      H1143   1.084       .  S
C1139      C1140   1.412       .  A
C1139      C1146   1.445       .  S
C1140      C1141   1.402       .  A
C1141      C1142   1.401       .  A
C1141      H1144   1.084       .  S
C1142      C1145   1.445       .  S
C1145      N1147   1.157       .  T
C1146      N1148   1.157       .  T
C1149      C1150   1.405       .  A
C1150      C1151   1.402       .  A
C1150      H1155   1.085       .  S
C1151      C1158   1.444       .  S
C1152      C1153   1.405       .  A
C1153      C1154   1.402       .  A
C1153      H1156   1.085       .  S
C1154      C1157   1.444       .  S
C1157      N1159   1.157       .  T
C1158      N1160   1.157       .  T
C1161      C1162   1.406       .  A
C1161      C1166   1.416       .  A
C1162      C1163   1.398       .  A
C1162      H1167   1.085       .  S
C1163      C1164   1.411       .  A
C1163      C1170   1.446       .  S
C1164      C1165   1.403       .  A
C1165      C1166   1.404       .  A
C1165      H1168   1.085       .  S
C1166      C1169   1.443       .  S
C1169      N1171   1.157       .  T
C1170      N1172   1.157       .  T
C1173      C1174   1.403       .  A
C1173      C1178   1.411       .  A
C1174      C1175   1.403       .  A
C1174      H1179   1.085       .  S
C1175      C1176   1.416       .  A
C1175      C1182   1.443       .  S
C1176      C1177   1.406       .  A
C1177      C1178   1.396       .  A
C1177      H1180   1.085       .  S
C1178      C1181   1.445       .  S
C1181      N1183   1.157       .  T
C1182      N1184   1.157       .  T
