geometry optimzed in LAMMPS
_audit_creation_date              2020-11-30 
_audit_creation_method            'lammps2cif' 
_symmetry_space_group_name_H-M    'P1' 
_symmetry_Int_Tables_number       1 
_symmetry_cell_setting            triclinic 
loop_ 
_symmetry_equiv_pos_as_xyz 
  x,y,z 
_cell_length_a                    43.6623093780765 
_cell_length_b                    43.66408588131144 
_cell_length_c                    43.69141473694648 
_cell_angle_alpha                 90.14921268412685 
_cell_angle_beta                  89.15957191812805 
_cell_angle_gamma                 89.60965975577112 
loop_ 
_atom_site_label 
_atom_site_type_symbol 
_atom_site_fract_x 
_atom_site_fract_y 
_atom_site_fract_z 
_atom_site_charge 
O1          O  0.99870553  0.45842335  0.27620049    -0.70870
O2          O  0.50214659  0.04538980  0.27354156    -0.71090
O3          O  0.45698333  0.50391469  0.27376649    -0.70950
O4          O  0.04368748  0.99972957  0.27605193    -0.70960
O5          O  0.04564201  0.50001018  0.22639683    -0.70920
O6          O  0.45856201  0.00002283  0.22439343    -0.70940
O7          O  0.00176611  0.04373574  0.22381028    -0.70880
O8          O  0.50218110  0.45684906  0.22654846    -0.71060
V9          V  0.50039310  0.50187081  0.27393248     1.35240
V10         V  0.50206211  0.00025061  0.22623075     1.35170
C11         C  0.50009554  0.44287308  0.25175794     0.78370
C12         C  0.50204530  0.05931156  0.24820905     0.78420
C13         C  0.44275493  0.00192515  0.24883639     0.78290
C14         C  0.05952759  0.99915863  0.25163199     0.78260
O15         O  0.47494894  0.20765774  0.25092721    -0.70870
O16         O  0.47348132  0.29471487  0.25026836    -0.71090
O17         O  0.47376616  0.25034441  0.20698510    -0.70950
O18         O  0.47466757  0.25141471  0.29387611    -0.70960
O19         O  0.02413019  0.25102131  0.29272281    -0.70920
O20         O  0.02327268  0.25233091  0.20582370    -0.70940
O21         O  0.02314361  0.29506057  0.25017043    -0.70880
O22         O  0.02436699  0.20819434  0.24817367    -0.71060
V23         V  0.47514815  0.25112206  0.25045477     1.35240
V24         V  0.02278008  0.25163749  0.24926033     1.35170
C25         C  0.99991164  0.19285874  0.24930581     0.78370
C26         C  0.99812865  0.30980080  0.25063352     0.78420
C27         C  0.49841094  0.25085506  0.19141218     0.78290
C28         C  0.49951774  0.25112056  0.30837312     0.78260
O29         O  0.24971053  0.47623087  0.29291088    -0.70870
O30         O  0.25390221  0.47422794  0.20625908    -0.71090
O31         O  0.29530660  0.47648987  0.25117083    -0.70950
O32         O  0.20840565  0.47405018  0.24828950    -0.70960
O33         O  0.20682870  0.02365965  0.25152839    -0.70920
O34         O  0.29370002  0.02596802  0.24596225    -0.70940
O35         O  0.24801444  0.02369594  0.20535604    -0.70880
O36         O  0.25247621  0.02560054  0.29225864    -0.71060
V37         V  0.25183181  0.47617486  0.24961769     1.35240
V38         V  0.25028345  0.02384600  0.24877489     1.35170
C39         C  0.25118368  0.00110213  0.30765328     0.78370
C40         C  0.25076264  0.99857821  0.19104839     0.78420
C41         C  0.30927624  0.50163783  0.24851914     0.78290
C42         C  0.19275863  0.49847605  0.25024433     0.78260
O43         O  0.22615222  0.45611983  0.99861889    -0.70870
O44         O  0.22367511  0.04332631  0.50095907    -0.71090
O45         O  0.22462790  0.50104012  0.45630809    -0.70950
O46         O  0.22459022  0.99818409  0.04307193    -0.70960
O47         O  0.27398097  0.50218661  0.04272798    -0.70920
O48         O  0.27440758  0.99905884  0.45559910    -0.70940
O49         O  0.27331781  0.04406470  0.99761916    -0.70880
O50         O  0.27571821  0.45738453  0.50093449    -0.71060
V51         V  0.22569249  0.49971495  0.99971020     1.35240
V52         V  0.27341273  0.00068787  0.99919333     1.35170
C53         C  0.25143540  0.44187282  0.00038614     0.78370
C54         C  0.24820577  0.05856707  0.99901552     0.78420
C55         C  0.24948012  0.00015808  0.44119896     0.78290
C56         C  0.24917747  0.99961318  0.05787786     0.78260
O57         O  0.00015472  0.22522316  0.45651173    -0.70870
O58         O  0.50146941  0.22546167  0.04336558    -0.71090
O59         O  0.45723437  0.22529756  0.50142893    -0.70950
O60         O  0.04412417  0.22580880  0.99866816    -0.70960
O61         O  0.04342241  0.27522161  0.49927214    -0.70920
O62         O  0.45651627  0.27473236  0.00032534    -0.70940
O63         O  0.99964545  0.27521429  0.04342906    -0.70880
O64         O  0.49997917  0.27501424  0.45649512    -0.71060
V65         V  0.50069801  0.22639739  0.49997342     1.35240
V66         V  0.49995562  0.27409976  0.99992056     1.35170
C67         C  0.50001424  0.25008135  0.44179131     0.78370
C68         C  0.50050060  0.25034678  0.05814459     0.78420
C69         C  0.44179000  0.24992451  0.00128562     0.78290
C70         C  0.05888061  0.25061623  0.99838150     0.78260
O71         O  0.24808688  0.29318636  0.02585923    -0.70870
O72         O  0.24837580  0.20631461  0.02329965    -0.71090
O73         O  0.29156850  0.24962517  0.02796154    -0.70950
O74         O  0.20484710  0.24990675  0.02123921    -0.70960
O75         O  0.20918651  0.25260759  0.47167187    -0.70920
O76         O  0.29582846  0.24909151  0.47831036    -0.70940
O77         O  0.25101805  0.20745473  0.47371398    -0.70880
O78         O  0.25393743  0.29438790  0.47645508    -0.71060
V79         V  0.24827326  0.24976648  0.02362598     1.35240
V80         V  0.25244399  0.25089350  0.47599317     1.35170
C81         C  0.25137545  0.30864225  0.00162794     0.78370
C82         C  0.24925767  0.19198666  0.99810056     0.78420
C83         C  0.30838548  0.24912952  0.00419274     0.78290
C84         C  0.19233626  0.25138155  0.99536900     0.78260
C85         C  0.40729970  0.24969844  0.00265406    -0.04430
C86         C  0.39025827  0.27698832  0.00919606    -0.01550
C87         C  0.35798054  0.27627538  0.01156643     0.03440
C88         C  0.34215390  0.24888515  0.00626899    -0.04430
C89         C  0.35865935  0.22159945  0.50102402    -0.01540
C90         C  0.39089535  0.22194408  0.49845838     0.03440
C91         C  0.40534752  0.30618601  0.01344271     0.38090
C92         C  0.34256248  0.19267610  0.50034911     0.38080
C93         C  0.40657235  0.19352507  0.49052279     0.36500
C94         C  0.34103865  0.30361691  0.02064930     0.36500
N95         N  0.41880481  0.17076358  0.48405066    -0.38320
N96         N  0.32784177  0.32536045  0.02859280    -0.38320
N97         N  0.33029963  0.16928761  0.50081155    -0.37760
N98         N  0.41713394  0.32960289  0.01678089    -0.37770
C99         C  0.09340534  0.25083679  0.99657235    -0.04430
C100        C  0.10985542  0.27891818  0.99764378    -0.01550
C101        C  0.14207977  0.27902659  0.99473370     0.03440
C102        C  0.15858711  0.25134754  0.99315970    -0.04430
C103        C  0.14278335  0.22351502  0.49097119    -0.01540
C104        C  0.11046234  0.22307314  0.49258413     0.03440
C105        C  0.09428847  0.30806863  0.00234434     0.38090
C106        C  0.15981722  0.19531522  0.48552342     0.38080
C107        C  0.09535579  0.19368845  0.48989687     0.36500
C108        C  0.15815661  0.30779867  0.99131590     0.36500
N109        N  0.08356371  0.17013662  0.48768473    -0.38320
N110        N  0.17045187  0.33087926  0.98745123    -0.38320
N111        N  0.17301599  0.17275356  0.48049292    -0.37760
N112        N  0.08217200  0.33143533  0.00631044    -0.37770
C113        C  0.25258890  0.40778274  0.00212673    -0.04430
C114        C  0.23083893  0.39179253  0.02020619    -0.01550
C115        C  0.23160371  0.35949359  0.02149741     0.03440
C116        C  0.25238739  0.34271545  0.00266026    -0.04430
C117        C  0.27446994  0.35870684  0.48502430    -0.01540
C118        C  0.27567237  0.39096269  0.48620771     0.03440
C119        C  0.20832651  0.40852678  0.03857538     0.38090
C120        C  0.29669873  0.34204293  0.46623736     0.38080
C121        C  0.30093088  0.40657702  0.47110900     0.36500
C122        C  0.21058947  0.34369279  0.04199682     0.36500
N123        N  0.32124656  0.41891499  0.45925497    -0.38320
N124        N  0.19386647  0.33116187  0.05842360    -0.38320
N125        N  0.31442496  0.32881928  0.45122821    -0.37760
N126        N  0.19032894  0.42184515  0.05317025    -0.37770
C127        C  0.24810331  0.15782796  0.99737812    -0.04430
C128        C  0.22971946  0.14186953  0.01894553    -0.01550
C129        C  0.22907726  0.10957511  0.01885742     0.03440
C130        C  0.24777192  0.09267646  0.99816308    -0.04430
C131        C  0.26634013  0.10856871  0.47673754    -0.01540
C132        C  0.26557197  0.14087917  0.47554260     0.03440
C133        C  0.21042376  0.15855525  0.04073105     0.38090
C134        C  0.28609799  0.09175413  0.45549260     0.38080
C135        C  0.28333040  0.15646561  0.45202237     0.36500
C136        C  0.20970912  0.09393315  0.04091738     0.36500
N137        N  0.29750980  0.16880448  0.43322897    -0.38320
N138        N  0.19393575  0.08203906  0.05865626    -0.37960
N139        N  0.30193990  0.07841008  0.43860677    -0.37760
N140        N  0.19494217  0.17179069  0.05802896    -0.37770
C141        C  0.25113476  0.00120062  0.34210989    -0.04430
C142        C  0.24404817  0.02828239  0.35908349    -0.01550
C143        C  0.24258576  0.02760783  0.39141788     0.03440
C144        C  0.24935965  0.00043569  0.40731301    -0.04430
C145        C  0.25576691  0.47341959  0.39081134    -0.01540
C146        C  0.25715779  0.47372511  0.35855385     0.03440
C147        C  0.23800155  0.05710586  0.34378467     0.38090
C148        C  0.25864753  0.44457896  0.40689361     0.38080
C149        C  0.26545097  0.44544948  0.34281196     0.36500
C150        C  0.23294005  0.05473370  0.40834240     0.36500
N151        N  0.27220177  0.42283131  0.33050574    -0.38320
N152        N  0.22463232  0.07631689  0.42154571    -0.38320
N153        N  0.26007853  0.42107572  0.41892196    -0.37760
N154        N  0.23334255  0.08028895  0.33187087    -0.37770
C155        C  0.24893815  0.99802819  0.09215649    -0.04430
C156        C  0.27438654  0.48554885  0.10786501    -0.01550
C157        C  0.27446726  0.48473820  0.14016824     0.03440
C158        C  0.24990741  0.99766403  0.15718659    -0.04430
C159        C  0.22406842  0.00904154  0.14184117    -0.01540
C160        C  0.22307540  0.00827905  0.10958076     0.03440
C161        C  0.30008861  0.47213418  0.09105188     0.38090
C162        C  0.19783972  0.02045301  0.15937078     0.38080
C163        C  0.19483491  0.01716731  0.09483099     0.36500
C164        C  0.29992099  0.47052792  0.15591441     0.36500
N165        N  0.17187670  0.02352221  0.08346857    -0.38320
N166        N  0.32008433  0.45895228  0.16844636    -0.38320
N167        N  0.17691431  0.02953594  0.17328822    -0.37760
N168        N  0.32064254  0.46138358  0.07778160    -0.37770
C169        C  0.49970026  0.25083548  0.34284811    -0.04430
C170        C  0.02669496  0.24270505  0.35898464    -0.01550
C171        C  0.02667132  0.24254221  0.39131013     0.03440
C172        C  0.49985802  0.25006470  0.40798546    -0.04430
C173        C  0.47296189  0.25791837  0.39244575    -0.01540
C174        C  0.47277975  0.25855383  0.36014582     0.03440
C175        C  0.05470186  0.23396346  0.34282456     0.38090
C176        C  0.44517544  0.26490090  0.40987523     0.38080
C177        C  0.44468731  0.26772146  0.34523030     0.36500
C178        C  0.05452958  0.23511925  0.40757546     0.36500
N179        N  0.42217127  0.27500100  0.33353036    -0.38320
N180        N  0.07676792  0.22931651  0.42050184    -0.38320
N181        N  0.42302570  0.27033348  0.42377654    -0.37760
N182        N  0.07717872  0.22700285  0.33018296    -0.37770
C183        C  0.49992079  0.25025144  0.09201800    -0.04430
C184        C  0.02466645  0.23778482  0.10826308    -0.01550
C185        C  0.02400283  0.23747707  0.14058315     0.03440
C186        C  0.49837254  0.24968516  0.15709209    -0.04430
C187        C  0.47288285  0.26067142  0.14039720    -0.01540
C188        C  0.47401381  0.26150624  0.10811521     0.03440
C189        C  0.05113190  0.22566186  0.09161867     0.38090
C190        C  0.44488298  0.27041947  0.15592039     0.38080
C191        C  0.44793357  0.27312076  0.09138058     0.36500
C192        C  0.04923897  0.22311953  0.15653015     0.36500
N193        N  0.42698751  0.28238632  0.07830252    -0.38320
N194        N  0.06932714  0.21153135  0.16917243    -0.38320
N195        N  0.42205871  0.27756462  0.16778021    -0.37760
N196        N  0.07219049  0.21601320  0.07829692    -0.37770
C197        C  0.15869007  0.99766238  0.25130646    -0.04430
C198        C  0.14224559  0.01548641  0.27313505    -0.01550
C199        C  0.10995611  0.01475346  0.27432745     0.03440
C200        C  0.09361585  0.99754663  0.25252402    -0.04430
C201        C  0.11007835  0.47887799  0.23138220    -0.01540
C202        C  0.14242583  0.47883844  0.23085900     0.03440
C203        C  0.15845722  0.03433986  0.29488771     0.38090
C204        C  0.09378764  0.45848219  0.21108997     0.38080
C205        C  0.15886625  0.46002422  0.20856033     0.36500
C206        C  0.09376091  0.03200260  0.29804861     0.36500
N207        N  0.17193864  0.44498994  0.19078095    -0.38320
N208        N  0.08098540  0.04576388  0.31703626    -0.38320
N209        N  0.08075154  0.44207388  0.19510233    -0.37760
N210        N  0.17112158  0.04961080  0.31221687    -0.37770
C211        C  0.34318552  0.00247049  0.24870841    -0.04430
C212        C  0.35907001  0.49240589  0.27468123    -0.01550
C213        C  0.39138135  0.49199454  0.27469696     0.03440
C214        C  0.40836726  0.00173096  0.24849659    -0.04430
C215        C  0.39207780  0.01163817  0.22231321    -0.01540
C216        C  0.35972699  0.01279101  0.22284735     0.03440
C217        C  0.34211753  0.48372810  0.30210190     0.38090
C218        C  0.40820909  0.02104437  0.19466316     0.38080
C219        C  0.34340487  0.02481748  0.19672607     0.36500
C220        C  0.40676548  0.48061145  0.30167694     0.36500
N221        N  0.33046288  0.03473015  0.17600862    -0.38320
N222        N  0.41886979  0.47157068  0.32328437    -0.38320
N223        N  0.42087802  0.02847110  0.17247158    -0.37760
N224        N  0.32889886  0.47708550  0.32421362    -0.37770
C225        C  0.99792527  0.34397990  0.25175540    -0.04430
C226        C  0.01968175  0.35981195  0.26956346    -0.01550
C227        C  0.02027138  0.39214276  0.26974219     0.03440
C228        C  0.99901336  0.40897779  0.25240624    -0.04430
C229        C  0.47691652  0.39337187  0.23516552    -0.01540
C230        C  0.47632144  0.36107685  0.23484207     0.03440
C231        C  0.04102826  0.34300408  0.28849552     0.38090
C232        C  0.45427514  0.41062726  0.21816018     0.38080
C233        C  0.45372744  0.34575153  0.21641185     0.36500
C234        C  0.04348311  0.40809735  0.28696821     0.36500
N235        N  0.43536234  0.33404865  0.20168400    -0.38320
N236        N  0.06203101  0.42086671  0.30059658    -0.38320
N237        N  0.43622680  0.42440427  0.20465925    -0.37760
N238        N  0.05802914  0.32963759  0.30364006    -0.37770
C239        C  0.50173375  0.09319581  0.24724679    -0.04430
C240        C  0.47413802  0.10915526  0.24233191    -0.01550
C241        C  0.47359458  0.14149635  0.24198352     0.03440
C242        C  0.00050777  0.15840515  0.24856020    -0.04430
C243        C  0.02814029  0.14190612  0.25390999    -0.01540
C244        C  0.02886930  0.10966021  0.25176317     0.03440
C245        C  0.44606554  0.09227723  0.23773275     0.38090
C246        C  0.05598051  0.15755141  0.26249450     0.38080
C247        C  0.05800457  0.09359429  0.25239514     0.36500
C248        C  0.44520494  0.15687046  0.23410642     0.36500
N249        N  0.08163953  0.08148212  0.25187806    -0.38320
N250        N  0.42249999  0.16890186  0.22765554    -0.38320
N251        N  0.07822076  0.16981020  0.26957145    -0.37760
N252        N  0.42341105  0.07923337  0.23424704    -0.37770
O253        O  0.99870552  0.45842334  0.77620051    -0.70870
O254        O  0.50214658  0.04538979  0.77354157    -0.71090
O255        O  0.45698333  0.50391468  0.77376649    -0.70950
O256        O  0.04368747  0.99972956  0.77605193    -0.70960
O257        O  0.04564200  0.50001016  0.72639684    -0.70920
O258        O  0.45856201  0.00002282  0.72439344    -0.70940
O259        O  0.00176611  0.04373573  0.72381029    -0.70880
O260        O  0.50218109  0.45684905  0.72654847    -0.71060
V261        V  0.50039310  0.50187080  0.77393248     1.35240
V262        V  0.50206210  0.00025059  0.72623075     1.35170
C263        C  0.50009553  0.44287307  0.75175795     0.78370
C264        C  0.50204529  0.05931155  0.74820905     0.78420
C265        C  0.44275493  0.00192514  0.74883639     0.78290
C266        C  0.05952759  0.99915862  0.75163200     0.78260
O267        O  0.47494894  0.20765772  0.75092720    -0.70870
O268        O  0.47348133  0.29471486  0.75026836    -0.71090
O269        O  0.47376617  0.25034440  0.70698510    -0.70950
O270        O  0.47466757  0.25141469  0.79387611    -0.70960
O271        O  0.02413018  0.25102130  0.79272281    -0.70920
O272        O  0.02327268  0.25233090  0.70582371    -0.70940
O273        O  0.02314360  0.29506056  0.75017043    -0.70880
O274        O  0.02436698  0.20819433  0.74817367    -0.71060
V275        V  0.47514815  0.25112205  0.75045477     1.35240
V276        V  0.02278007  0.25163748  0.74926033     1.35170
C277        C  0.99991164  0.19285873  0.74930580     0.78370
C278        C  0.99812863  0.30980079  0.75063353     0.78420
C279        C  0.49841094  0.25085505  0.69141218     0.78290
C280        C  0.49951774  0.25112054  0.80837312     0.78260
O281        O  0.24971052  0.47623087  0.79291088    -0.70870
O282        O  0.25390220  0.47422793  0.70625909    -0.71090
O283        O  0.29530659  0.47648987  0.75117083    -0.70950
O284        O  0.20840564  0.47405018  0.74828950    -0.70960
O285        O  0.20682869  0.02365965  0.75152840    -0.70920
O286        O  0.29370002  0.02596802  0.74596224    -0.70940
O287        O  0.24801443  0.02369593  0.70535604    -0.70880
O288        O  0.25247621  0.02560055  0.79225864    -0.71060
V289        V  0.25183180  0.47617486  0.74961769     1.35240
V290        V  0.25028345  0.02384600  0.74877489     1.35170
C291        C  0.25118368  0.00110213  0.80765328     0.78370
C292        C  0.25076263  0.99857820  0.69104839     0.78420
C293        C  0.30927624  0.50163783  0.74851914     0.78290
C294        C  0.19275863  0.49847605  0.75024433     0.78260
O295        O  0.22615220  0.45611981  0.49861889    -0.70870
O296        O  0.22367513  0.04332633  0.00095907    -0.71090
O297        O  0.22462792  0.50104013  0.95630809    -0.70950
O298        O  0.22459019  0.99818407  0.54307193    -0.70960
O299        O  0.27398096  0.50218658  0.54272798    -0.70920
O300        O  0.27440761  0.99905885  0.95559910    -0.70940
O301        O  0.27331779  0.04406468  0.49761916    -0.70880
O302        O  0.27571823  0.45738455  0.00093449    -0.71060
V303        V  0.22569248  0.49971493  0.49971020     1.35240
V304        V  0.27341270  0.00068785  0.49919333     1.35170
C305        C  0.25143538  0.44187281  0.50038613     0.78370
C306        C  0.24820575  0.05856705  0.49901552     0.78420
C307        C  0.24948015  0.00015810  0.94119896     0.78290
C308        C  0.24917745  0.99961316  0.55787786     0.78260
O309        O  0.00015473  0.22522314  0.95651173    -0.70870
O310        O  0.50146944  0.22546168  0.54336558    -0.71090
O311        O  0.45723436  0.22529755  0.00142892    -0.70950
O312        O  0.04412418  0.22580881  0.49866815    -0.70960
O313        O  0.04342240  0.27522160  0.99927213    -0.70920
O314        O  0.45651628  0.27473237  0.50032534    -0.70940
O315        O  0.99964546  0.27521430  0.54342907    -0.70880
O316        O  0.49997915  0.27501422  0.95649512    -0.71060
V317        V  0.50069800  0.22639737  0.99997343     1.35240
V318        V  0.49995563  0.27409978  0.49992057     1.35170
C319        C  0.50001424  0.25008132  0.94179131     0.78370
C320        C  0.50050062  0.25034679  0.55814459     0.78420
C321        C  0.44179001  0.24992452  0.50128563     0.78290
C322        C  0.05888061  0.25061624  0.49838150     0.78260
O323        O  0.24808688  0.29318635  0.52585923    -0.70870
O324        O  0.24837581  0.20631459  0.52329965    -0.71090
O325        O  0.29156851  0.24962516  0.52796154    -0.70950
O326        O  0.20484710  0.24990673  0.52123920    -0.70960
O327        O  0.20918650  0.25260760  0.97167187    -0.70920
O328        O  0.29582845  0.24909153  0.97831036    -0.70940
O329        O  0.25101804  0.20745475  0.97371398    -0.70880
O330        O  0.25393742  0.29438792  0.97645508    -0.71060
V331        V  0.24827326  0.24976646  0.52362597     1.35240
V332        V  0.25244398  0.25089352  0.97599317     1.35170
C333        C  0.25137545  0.30864223  0.50162793     0.78370
C334        C  0.24925767  0.19198664  0.49810056     0.78420
C335        C  0.30838549  0.24912951  0.50419275     0.78290
C336        C  0.19233627  0.25138153  0.49536899     0.78260
C337        C  0.40729971  0.24969844  0.50265407    -0.04430
C338        C  0.39025827  0.27698832  0.50919606    -0.01550
C339        C  0.35798054  0.27627538  0.51156643     0.03440
C340        C  0.34215391  0.24888514  0.50626900    -0.04430
C341        C  0.35865933  0.22159945  0.00102401    -0.01540
C342        C  0.39089534  0.22194407  0.99845837     0.03440
C343        C  0.40534752  0.30618601  0.51344272     0.38090
C344        C  0.34256246  0.19267610  0.00034911     0.38080
C345        C  0.40657233  0.19352506  0.99052278     0.36500
C346        C  0.34103865  0.30361691  0.52064930     0.36500
N347        N  0.41880478  0.17076357  0.98405064    -0.38320
N348        N  0.32784176  0.32536045  0.52859279    -0.38320
N349        N  0.33029961  0.16928761  0.00081156    -0.37760
N350        N  0.41713393  0.32960291  0.51678089    -0.37770
C351        C  0.09340535  0.25083680  0.49657234    -0.04430
C352        C  0.10985543  0.27891818  0.49764373    -0.01550
C353        C  0.14207979  0.27902659  0.49473367     0.03440
C354        C  0.15858711  0.25134753  0.49315969    -0.04430
C355        C  0.14278335  0.22351503  0.99097117    -0.01540
C356        C  0.11046234  0.22307314  0.99258412     0.03440
C357        C  0.09428848  0.30806865  0.50234425     0.38090
C358        C  0.15981722  0.19531524  0.98552339     0.38080
C359        C  0.09535579  0.19368845  0.98989682     0.36500
C360        C  0.15815663  0.30779866  0.49131585     0.36500
N361        N  0.08356371  0.17013662  0.98768464    -0.38320
N362        N  0.17045190  0.33087924  0.48745118    -0.38320
N363        N  0.17301600  0.17275358  0.98049288    -0.37760
N364        N  0.08217202  0.33143535  0.50631031    -0.37770
C365        C  0.25258888  0.40778272  0.50212672    -0.04430
C366        C  0.23083892  0.39179251  0.52020618    -0.01550
C367        C  0.23160370  0.35949357  0.52149740     0.03440
C368        C  0.25238739  0.34271543  0.50266025    -0.04430
C369        C  0.27446995  0.35870685  0.98502431    -0.01540
C370        C  0.27567239  0.39096270  0.98620773     0.03440
C371        C  0.20832651  0.40852676  0.53857539     0.38090
C372        C  0.29669874  0.34204294  0.96623738     0.38080
C373        C  0.30093091  0.40657703  0.97110903     0.36500
C374        C  0.21058946  0.34369277  0.54199681     0.36500
N375        N  0.32124660  0.41891500  0.95925501    -0.38320
N376        N  0.19386647  0.33116185  0.55842358    -0.38320
N377        N  0.31442497  0.32881929  0.95122823    -0.37760
N378        N  0.19032895  0.42184512  0.55317027    -0.37770
C379        C  0.24810332  0.15782794  0.49737812    -0.04430
C380        C  0.22971946  0.14186952  0.51894554    -0.01550
C381        C  0.22907724  0.10957510  0.51885742     0.03440
C382        C  0.24777191  0.09267644  0.49816308    -0.04430
C383        C  0.26634014  0.10856874  0.97673754    -0.01540
C384        C  0.26557197  0.14087919  0.97554260     0.03440
C385        C  0.21042377  0.15855524  0.54073106     0.38090
C386        C  0.28609801  0.09175416  0.95549260     0.38080
C387        C  0.28333040  0.15646563  0.95202236     0.36500
C388        C  0.20970910  0.09393314  0.54091737     0.36500
N389        N  0.29750980  0.16880451  0.93322896    -0.38320
N390        N  0.19393572  0.08203906  0.55865625    -0.37960
N391        N  0.30193992  0.07841011  0.93860677    -0.37760
N392        N  0.19494219  0.17179068  0.55802897    -0.37770
C393        C  0.25113477  0.00120063  0.84210989    -0.04430
C394        C  0.24404817  0.02828239  0.85908349    -0.01550
C395        C  0.24258578  0.02760784  0.89141787     0.03440
C396        C  0.24935968  0.00043571  0.90731301    -0.04430
C397        C  0.25576693  0.47341961  0.89081134    -0.01540
C398        C  0.25715780  0.47372512  0.85855385     0.03440
C399        C  0.23800154  0.05710587  0.84378467     0.38090
C400        C  0.25864758  0.44457898  0.90689361     0.38080
C401        C  0.26545098  0.44544950  0.84281196     0.36500
C402        C  0.23294006  0.05473371  0.90834240     0.36500
N403        N  0.27220178  0.42283132  0.83050574    -0.38320
N404        N  0.22463233  0.07631690  0.92154571    -0.38320
N405        N  0.26007860  0.42107575  0.91892196    -0.37760
N406        N  0.23334254  0.08028895  0.83187087    -0.37770
C407        C  0.24893813  0.99802817  0.59215649    -0.04430
C408        C  0.27438653  0.48554882  0.60786501    -0.01550
C409        C  0.27446725  0.48473818  0.64016824     0.03440
C410        C  0.24990739  0.99766402  0.65718659    -0.04430
C411        C  0.22406841  0.00904153  0.64184117    -0.01540
C412        C  0.22307538  0.00827904  0.60958076     0.03440
C413        C  0.30008859  0.47213415  0.59105188     0.38090
C414        C  0.19783971  0.02045302  0.65937079     0.38080
C415        C  0.19483489  0.01716730  0.59483100     0.36500
C416        C  0.29992098  0.47052790  0.65591441     0.36500
N417        N  0.17187669  0.02352221  0.58346858    -0.38320
N418        N  0.32008432  0.45895226  0.66844637    -0.38320
N419        N  0.17691431  0.02953595  0.67328823    -0.37760
N420        N  0.32064252  0.46138354  0.57778160    -0.37770
C421        C  0.49970026  0.25083546  0.84284811    -0.04430
C422        C  0.02669496  0.24270503  0.85898464    -0.01550
C423        C  0.02667131  0.24254219  0.89131013     0.03440
C424        C  0.49985802  0.25006467  0.90798546    -0.04430
C425        C  0.47296189  0.25791834  0.89244575    -0.01540
C426        C  0.47277976  0.25855380  0.86014582     0.03440
C427        C  0.05470185  0.23396343  0.84282455     0.38090
C428        C  0.44517544  0.26490087  0.90987523     0.38080
C429        C  0.44468731  0.26772144  0.84523030     0.36500
C430        C  0.05452957  0.23511923  0.90757545     0.36500
N431        N  0.42217127  0.27500099  0.83353036    -0.38320
N432        N  0.07676791  0.22931648  0.92050184    -0.38320
N433        N  0.42302570  0.27033344  0.92377654    -0.37760
N434        N  0.07717871  0.22700283  0.83018296    -0.37770
C435        C  0.49992081  0.25025144  0.59201800    -0.04430
C436        C  0.02466645  0.23778481  0.60826308    -0.01550
C437        C  0.02400282  0.23747705  0.64058316     0.03440
C438        C  0.49837255  0.24968515  0.65709209    -0.04430
C439        C  0.47288286  0.26067142  0.64039720    -0.01540
C440        C  0.47401382  0.26150625  0.60811521     0.03440
C441        C  0.05113189  0.22566183  0.59161867     0.38090
C442        C  0.44488299  0.27041948  0.65592039     0.38080
C443        C  0.44793359  0.27312078  0.59138058     0.36500
C444        C  0.04923895  0.22311950  0.65653016     0.36500
N445        N  0.42698754  0.28238636  0.57830252    -0.38320
N446        N  0.06932712  0.21153131  0.66917244    -0.38320
N447        N  0.42205872  0.27756464  0.66778021    -0.37760
N448        N  0.07219048  0.21601317  0.57829693    -0.37770
C449        C  0.15869006  0.99766237  0.75130647    -0.04430
C450        C  0.14224559  0.01548641  0.77313505    -0.01550
C451        C  0.10995611  0.01475345  0.77432745     0.03440
C452        C  0.09361585  0.99754662  0.75252403    -0.04430
C453        C  0.11007834  0.47887798  0.73138221    -0.01540
C454        C  0.14242582  0.47883844  0.73085901     0.03440
C455        C  0.15845721  0.03433986  0.79488771     0.38090
C456        C  0.09378764  0.45848218  0.71108998     0.38080
C457        C  0.15886625  0.46002421  0.70856034     0.36500
C458        C  0.09376090  0.03200260  0.79804861     0.36500
N459        N  0.17193864  0.44498994  0.69078095    -0.38320
N460        N  0.08098539  0.04576388  0.81703626    -0.38320
N461        N  0.08075154  0.44207386  0.69510234    -0.37760
N462        N  0.17112157  0.04961081  0.81221687    -0.37770
C463        C  0.34318551  0.00247048  0.74870841    -0.04430
C464        C  0.35907000  0.49240589  0.77468123    -0.01550
C465        C  0.39138134  0.49199454  0.77469697     0.03440
C466        C  0.40836726  0.00173096  0.74849660    -0.04430
C467        C  0.39207779  0.01163816  0.72231321    -0.01540
C468        C  0.35972699  0.01279100  0.72284735     0.03440
C469        C  0.34211752  0.48372811  0.80210190     0.38090
C470        C  0.40820908  0.02104436  0.69466316     0.38080
C471        C  0.34340487  0.02481746  0.69672606     0.36500
C472        C  0.40676547  0.48061145  0.80167695     0.36500
N473        N  0.33046288  0.03473012  0.67600860    -0.38320
N474        N  0.41886978  0.47157068  0.82328438    -0.38320
N475        N  0.42087803  0.02847109  0.67247158    -0.37760
N476        N  0.32889886  0.47708551  0.82421362    -0.37770
C477        C  0.99792526  0.34397989  0.75175541    -0.04430
C478        C  0.01968174  0.35981194  0.76956346    -0.01550
C479        C  0.02027137  0.39214275  0.76974219     0.03440
C480        C  0.99901335  0.40897777  0.75240626    -0.04430
C481        C  0.47691650  0.39337186  0.73516555    -0.01540
C482        C  0.47632142  0.36107684  0.73484209     0.03440
C483        C  0.04102826  0.34300407  0.78849552     0.38090
C484        C  0.45427510  0.41062725  0.71816023     0.38080
C485        C  0.45372741  0.34575152  0.71641189     0.36500
C486        C  0.04348311  0.40809734  0.78696821     0.36500
N487        N  0.43536230  0.33404864  0.70168405    -0.38320
N488        N  0.06203101  0.42086669  0.80059657    -0.38320
N489        N  0.43622675  0.42440426  0.70465931    -0.37760
N490        N  0.05802915  0.32963757  0.80364005    -0.37770
C491        C  0.50173375  0.09319580  0.74724679    -0.04430
C492        C  0.47413802  0.10915525  0.74233192    -0.01550
C493        C  0.47359458  0.14149634  0.74198352     0.03440
C494        C  0.00050777  0.15840514  0.74856019    -0.04430
C495        C  0.02814029  0.14190611  0.75390997    -0.01540
C496        C  0.02886930  0.10966019  0.75176316     0.03440
C497        C  0.44606553  0.09227722  0.73773276     0.38090
C498        C  0.05598052  0.15755140  0.76249448     0.38080
C499        C  0.05800457  0.09359427  0.75239513     0.36500
C500        C  0.44520494  0.15687045  0.73410643     0.36500
N501        N  0.08163953  0.08148210  0.75187804    -0.38320
N502        N  0.42249999  0.16890185  0.72765555    -0.38320
N503        N  0.07822077  0.16981019  0.76957141    -0.37760
N504        N  0.42341105  0.07923336  0.73424706    -0.37770
O505        O  0.99870553  0.95842335  0.27620050    -0.70870
O506        O  0.50214659  0.54538980  0.27354156    -0.71090
O507        O  0.45698333  0.00391469  0.27376649    -0.70950
O508        O  0.04368748  0.49972957  0.27605193    -0.70960
O509        O  0.04564200  0.00001018  0.22639684    -0.70920
O510        O  0.45856201  0.50002283  0.22439343    -0.70940
O511        O  0.00176611  0.54373574  0.22381028    -0.70880
O512        O  0.50218110  0.95684906  0.22654847    -0.71060
V513        V  0.50039310  0.00187081  0.27393248     1.35240
V514        V  0.50206211  0.50025061  0.22623075     1.35170
C515        C  0.50009554  0.94287308  0.25175795     0.78370
C516        C  0.50204529  0.55931156  0.24820905     0.78420
C517        C  0.44275493  0.50192515  0.24883639     0.78290
C518        C  0.05952759  0.49915863  0.25163199     0.78260
O519        O  0.47494894  0.70765774  0.25092721    -0.70870
O520        O  0.47348132  0.79471487  0.25026835    -0.71090
O521        O  0.47376616  0.75034441  0.20698510    -0.70950
O522        O  0.47466757  0.75141471  0.29387611    -0.70960
O523        O  0.02413019  0.75102131  0.29272281    -0.70920
O524        O  0.02327268  0.75233091  0.20582370    -0.70940
O525        O  0.02314361  0.79506057  0.25017043    -0.70880
O526        O  0.02436699  0.70819434  0.24817368    -0.71060
V527        V  0.47514815  0.75112206  0.25045477     1.35240
V528        V  0.02278008  0.75163749  0.24926033     1.35170
C529        C  0.99991164  0.69285874  0.24930581     0.78370
C530        C  0.99812864  0.80980080  0.25063352     0.78420
C531        C  0.49841093  0.75085506  0.19141218     0.78290
C532        C  0.49951774  0.75112056  0.30837311     0.78260
O533        O  0.24971052  0.97623087  0.29291088    -0.70870
O534        O  0.25390221  0.97422794  0.20625908    -0.71090
O535        O  0.29530660  0.97648987  0.25117083    -0.70950
O536        O  0.20840564  0.97405019  0.24828950    -0.70960
O537        O  0.20682870  0.52365964  0.25152840    -0.70920
O538        O  0.29370002  0.52596802  0.24596225    -0.70940
O539        O  0.24801444  0.52369594  0.20535604    -0.70880
O540        O  0.25247621  0.52560054  0.29225864    -0.71060
V541        V  0.25183181  0.97617486  0.24961769     1.35240
V542        V  0.25028345  0.52384600  0.24877489     1.35170
C543        C  0.25118368  0.50110212  0.30765328     0.78370
C544        C  0.25076264  0.49857821  0.19104839     0.78420
C545        C  0.30927624  0.00163783  0.24851914     0.78290
C546        C  0.19275863  0.99847605  0.25024433     0.78260
O547        O  0.22615221  0.95611983  0.99861889    -0.70870
O548        O  0.22367512  0.54332631  0.50095907    -0.71090
O549        O  0.22462789  0.00104012  0.45630809    -0.70950
O550        O  0.22459022  0.49818409  0.04307193    -0.70960
O551        O  0.27398097  0.00218660  0.04272798    -0.70920
O552        O  0.27440759  0.49905884  0.45559910    -0.70940
O553        O  0.27331781  0.54406470  0.99761916    -0.70880
O554        O  0.27571820  0.95738454  0.50093449    -0.71060
V555        V  0.22569249  0.99971495  0.99971020     1.35240
V556        V  0.27341273  0.50068787  0.99919333     1.35170
C557        C  0.25143539  0.94187282  0.00038613     0.78370
C558        C  0.24820577  0.55856707  0.99901552     0.78420
C559        C  0.24948013  0.50015808  0.44119896     0.78290
C560        C  0.24917747  0.49961318  0.05787786     0.78260
O561        O  0.00015472  0.72522316  0.45651173    -0.70870
O562        O  0.50146941  0.72546167  0.04336558    -0.71090
O563        O  0.45723437  0.72529756  0.50142893    -0.70950
O564        O  0.04412417  0.72580880  0.99866816    -0.70960
O565        O  0.04342240  0.77522160  0.49927214    -0.70920
O566        O  0.45651627  0.77473235  0.00032534    -0.70940
O567        O  0.99964545  0.77521429  0.04342906    -0.70880
O568        O  0.49997916  0.77501424  0.45649512    -0.71060
V569        V  0.50069801  0.72639738  0.49997342     1.35240
V570        V  0.49995562  0.77409976  0.99992056     1.35170
C571        C  0.50001424  0.75008134  0.44179131     0.78370
C572        C  0.50050060  0.75034678  0.05814459     0.78420
C573        C  0.44179000  0.74992450  0.00128562     0.78290
C574        C  0.05888061  0.75061622  0.99838150     0.78260
O575        O  0.24808688  0.79318636  0.02585923    -0.70870
O576        O  0.24837579  0.70631461  0.02329964    -0.71090
O577        O  0.29156850  0.74962517  0.02796154    -0.70950
O578        O  0.20484710  0.74990675  0.02123920    -0.70960
O579        O  0.20918651  0.75260759  0.47167187    -0.70920
O580        O  0.29582846  0.74909151  0.47831036    -0.70940
O581        O  0.25101805  0.70745473  0.47371398    -0.70880
O582        O  0.25393743  0.79438790  0.47645507    -0.71060
V583        V  0.24827326  0.74976648  0.02362597     1.35240
V584        V  0.25244399  0.75089350  0.47599317     1.35170
C585        C  0.25137545  0.80864225  0.00162793     0.78370
C586        C  0.24925766  0.69198666  0.99810055     0.78420
C587        C  0.30838548  0.74912952  0.00419274     0.78290
C588        C  0.19233626  0.75138155  0.99536899     0.78260
C589        C  0.40729970  0.74969843  0.00265407    -0.04430
C590        C  0.39025827  0.77698831  0.00919606    -0.01550
C591        C  0.35798054  0.77627538  0.01156643     0.03440
C592        C  0.34215390  0.74888514  0.00626899    -0.04430
C593        C  0.35865934  0.72159945  0.50102401    -0.01540
C594        C  0.39089535  0.72194407  0.49845837     0.03440
C595        C  0.40534752  0.80618600  0.01344271     0.38090
C596        C  0.34256248  0.69267610  0.50034910     0.38080
C597        C  0.40657235  0.69352507  0.49052279     0.36500
C598        C  0.34103865  0.80361691  0.02064930     0.36500
N599        N  0.41880480  0.67076357  0.48405066    -0.38320
N600        N  0.32784177  0.82536045  0.02859279    -0.38320
N601        N  0.33029962  0.66928761  0.50081154    -0.37760
N602        N  0.41713394  0.82960289  0.01678089    -0.37770
C603        C  0.09340534  0.75083679  0.99657234    -0.04430
C604        C  0.10985541  0.77891818  0.99764377    -0.01550
C605        C  0.14207977  0.77902659  0.99473370     0.03440
C606        C  0.15858710  0.75134755  0.99315969    -0.04430
C607        C  0.14278334  0.72351501  0.49097120    -0.01540
C608        C  0.11046234  0.72307314  0.49258414     0.03440
C609        C  0.09428846  0.80806863  0.00234434     0.38090
C610        C  0.15981722  0.69531522  0.48552343     0.38080
C611        C  0.09535579  0.69368845  0.48989688     0.36500
C612        C  0.15815661  0.80779867  0.99131591     0.36500
N613        N  0.08356370  0.67013661  0.48768474    -0.38320
N614        N  0.17045187  0.83087926  0.98745124    -0.38320
N615        N  0.17301599  0.67275355  0.48049294    -0.37760
N616        N  0.08217200  0.83143533  0.00631044    -0.37770
C617        C  0.25258889  0.90778274  0.00212673    -0.04430
C618        C  0.23083893  0.89179253  0.02020619    -0.01550
C619        C  0.23160371  0.85949359  0.02149741     0.03440
C620        C  0.25238739  0.84271545  0.00266026    -0.04430
C621        C  0.27446993  0.85870684  0.48502430    -0.01540
C622        C  0.27567236  0.89096269  0.48620771     0.03440
C623        C  0.20832651  0.90852678  0.03857538     0.38090
C624        C  0.29669872  0.84204293  0.46623736     0.38080
C625        C  0.30093087  0.90657702  0.47110900     0.36500
C626        C  0.21058947  0.84369279  0.04199682     0.36500
N627        N  0.32124654  0.91891499  0.45925496    -0.38320
N628        N  0.19386648  0.83116187  0.05842360    -0.38320
N629        N  0.31442495  0.82881928  0.45122821    -0.37760
N630        N  0.19032894  0.92184514  0.05317025    -0.37770
C631        C  0.24810331  0.65782796  0.99737811    -0.04430
C632        C  0.22971945  0.64186953  0.01894552    -0.01550
C633        C  0.22907725  0.60957511  0.01885740     0.03440
C634        C  0.24777192  0.59267646  0.99816307    -0.04430
C635        C  0.26634013  0.60856871  0.47673754    -0.01540
C636        C  0.26557197  0.64087917  0.47554260     0.03440
C637        C  0.21042374  0.65855525  0.04073103     0.38090
C638        C  0.28609799  0.59175414  0.45549259     0.38080
C639        C  0.28333039  0.65646561  0.45202236     0.36500
C640        C  0.20970910  0.59393315  0.04091736     0.36500
N641        N  0.29750979  0.66880448  0.43322895    -0.38320
N642        N  0.19393573  0.58203907  0.05865623    -0.37960
N643        N  0.30193990  0.57841009  0.43860676    -0.37760
N644        N  0.19494215  0.67179069  0.05802893    -0.37770
C645        C  0.25113476  0.50120062  0.34210989    -0.04430
C646        C  0.24404817  0.52828238  0.35908349    -0.01550
C647        C  0.24258577  0.52760782  0.39141787     0.03440
C648        C  0.24935966  0.50043569  0.40731301    -0.04430
C649        C  0.25576689  0.97341960  0.39081134    -0.01540
C650        C  0.25715778  0.97372511  0.35855385     0.03440
C651        C  0.23800155  0.55710586  0.34378467     0.38090
C652        C  0.25864751  0.94457896  0.40689361     0.38080
C653        C  0.26545095  0.94544949  0.34281196     0.36500
C654        C  0.23294005  0.55473369  0.40834240     0.36500
N655        N  0.27220176  0.92283131  0.33050574    -0.38320
N656        N  0.22463232  0.57631689  0.42154571    -0.38320
N657        N  0.26007851  0.92107572  0.41892196    -0.37760
N658        N  0.23334255  0.58028895  0.33187087    -0.37770
C659        C  0.24893815  0.49802819  0.09215649    -0.04430
C660        C  0.27438654  0.98554885  0.10786501    -0.01550
C661        C  0.27446726  0.98473820  0.14016824     0.03440
C662        C  0.24990741  0.49766403  0.15718659    -0.04430
C663        C  0.22406842  0.50904154  0.14184117    -0.01540
C664        C  0.22307540  0.50827905  0.10958076     0.03440
C665        C  0.30008861  0.97213418  0.09105188     0.38090
C666        C  0.19783972  0.52045301  0.15937078     0.38080
C667        C  0.19483491  0.51716731  0.09483099     0.36500
C668        C  0.29992099  0.97052792  0.15591441     0.36500
N669        N  0.17187671  0.52352222  0.08346857    -0.38320
N670        N  0.32008433  0.95895228  0.16844637    -0.38320
N671        N  0.17691431  0.52953594  0.17328822    -0.37760
N672        N  0.32064254  0.96138357  0.07778160    -0.37770
C673        C  0.49970026  0.75083548  0.34284811    -0.04430
C674        C  0.02669496  0.74270504  0.35898464    -0.01550
C675        C  0.02667132  0.74254220  0.39131013     0.03440
C676        C  0.49985802  0.75006470  0.40798546    -0.04430
C677        C  0.47296189  0.75791838  0.39244575    -0.01540
C678        C  0.47277976  0.75855384  0.36014582     0.03440
C679        C  0.05470185  0.73396343  0.34282455     0.38090
C680        C  0.44517545  0.76490093  0.40987523     0.38080
C681        C  0.44468732  0.76772149  0.34523030     0.36500
C682        C  0.05452957  0.73511923  0.40757546     0.36500
N683        N  0.42217129  0.77500106  0.33353036    -0.38320
N684        N  0.07676791  0.72931648  0.42050184    -0.38320
N685        N  0.42302571  0.77033352  0.42377654    -0.37760
N686        N  0.07717871  0.72700282  0.33018296    -0.37770
C687        C  0.49992079  0.75025144  0.09201800    -0.04430
C688        C  0.02466644  0.73778482  0.10826308    -0.01550
C689        C  0.02400283  0.73747706  0.14058316     0.03440
C690        C  0.49837254  0.74968516  0.15709209    -0.04430
C691        C  0.47288285  0.76067141  0.14039720    -0.01540
C692        C  0.47401380  0.76150624  0.10811521     0.03440
C693        C  0.05113189  0.72566185  0.09161867     0.38090
C694        C  0.44488297  0.77041946  0.15592039     0.38080
C695        C  0.44793356  0.77312075  0.09138058     0.36500
C696        C  0.04923896  0.72311953  0.15653015     0.36500
N697        N  0.42698751  0.78238631  0.07830252    -0.38320
N698        N  0.06932713  0.71153134  0.16917243    -0.38320
N699        N  0.42205871  0.77756461  0.16778021    -0.37760
N700        N  0.07219048  0.71601319  0.07829692    -0.37770
C701        C  0.15869007  0.49766237  0.25130646    -0.04430
C702        C  0.14224559  0.51548640  0.27313505    -0.01550
C703        C  0.10995611  0.51475345  0.27432745     0.03440
C704        C  0.09361585  0.49754663  0.25252402    -0.04430
C705        C  0.11007835  0.97887799  0.23138220    -0.01540
C706        C  0.14242583  0.97883844  0.23085900     0.03440
C707        C  0.15845722  0.53433985  0.29488771     0.38090
C708        C  0.09378764  0.95848219  0.21108997     0.38080
C709        C  0.15886625  0.96002422  0.20856033     0.36500
C710        C  0.09376091  0.53200260  0.29804861     0.36500
N711        N  0.17193864  0.94498994  0.19078094    -0.38320
N712        N  0.08098540  0.54576388  0.31703626    -0.38320
N713        N  0.08075155  0.94207388  0.19510233    -0.37760
N714        N  0.17112158  0.54961080  0.31221687    -0.37770
C715        C  0.34318552  0.50247048  0.24870841    -0.04430
C716        C  0.35907001  0.99240590  0.27468123    -0.01550
C717        C  0.39138135  0.99199454  0.27469697     0.03440
C718        C  0.40836726  0.50173096  0.24849659    -0.04430
C719        C  0.39207780  0.51163817  0.22231320    -0.01540
C720        C  0.35972699  0.51279100  0.22284735     0.03440
C721        C  0.34211752  0.98372810  0.30210190     0.38090
C722        C  0.40820908  0.52104437  0.19466316     0.38080
C723        C  0.34340487  0.52481747  0.19672607     0.36500
C724        C  0.40676548  0.98061145  0.30167695     0.36500
N725        N  0.33046288  0.53473014  0.17600861    -0.38320
N726        N  0.41886979  0.97157068  0.32328438    -0.38320
N727        N  0.42087802  0.52847110  0.17247157    -0.37760
N728        N  0.32889886  0.97708550  0.32421362    -0.37770
C729        C  0.99792527  0.84397990  0.25175540    -0.04430
C730        C  0.01968175  0.85981195  0.26956346    -0.01550
C731        C  0.02027137  0.89214276  0.26974219     0.03440
C732        C  0.99901336  0.90897779  0.25240625    -0.04430
C733        C  0.47691652  0.89337187  0.23516552    -0.01540
C734        C  0.47632144  0.86107685  0.23484207     0.03440
C735        C  0.04102825  0.84300408  0.28849553     0.38090
C736        C  0.45427514  0.91062726  0.21816018     0.38080
C737        C  0.45372744  0.84575153  0.21641184     0.36500
C738        C  0.04348310  0.90809735  0.28696821     0.36500
N739        N  0.43536235  0.83404865  0.20168399    -0.38320
N740        N  0.06203100  0.92086671  0.30059659    -0.38320
N741        N  0.43622680  0.92440427  0.20465925    -0.37760
N742        N  0.05802914  0.82963758  0.30364006    -0.37770
C743        C  0.50173375  0.59319581  0.24724679    -0.04430
C744        C  0.47413802  0.60915526  0.24233191    -0.01550
C745        C  0.47359458  0.64149635  0.24198352     0.03440
C746        C  0.00050777  0.65840515  0.24856020    -0.04430
C747        C  0.02814029  0.64190612  0.25390999    -0.01540
C748        C  0.02886930  0.60966021  0.25176317     0.03440
C749        C  0.44606553  0.59227723  0.23773275     0.38090
C750        C  0.05598051  0.65755141  0.26249451     0.38080
C751        C  0.05800457  0.59359429  0.25239514     0.36500
C752        C  0.44520494  0.65687046  0.23410643     0.36500
N753        N  0.08163953  0.58148212  0.25187806    -0.38320
N754        N  0.42249999  0.66890186  0.22765555    -0.38320
N755        N  0.07822076  0.66981020  0.26957145    -0.37760
N756        N  0.42341105  0.57923337  0.23424704    -0.37770
O757        O  0.99870552  0.95842334  0.77620051    -0.70870
O758        O  0.50214658  0.54538979  0.77354157    -0.71090
O759        O  0.45698333  0.00391468  0.77376649    -0.70950
O760        O  0.04368747  0.49972956  0.77605193    -0.70960
O761        O  0.04564200  0.00001016  0.72639684    -0.70920
O762        O  0.45856201  0.50002282  0.72439344    -0.70940
O763        O  0.00176611  0.54373572  0.72381029    -0.70880
O764        O  0.50218110  0.95684905  0.72654847    -0.71060
V765        V  0.50039310  0.00187080  0.77393249     1.35240
V766        V  0.50206210  0.50025059  0.72623075     1.35170
C767        C  0.50009553  0.94287307  0.75175795     0.78370
C768        C  0.50204529  0.55931155  0.74820905     0.78420
C769        C  0.44275493  0.50192514  0.74883639     0.78290
C770        C  0.05952759  0.49915862  0.75163200     0.78260
O771        O  0.47494895  0.70765772  0.75092720    -0.70870
O772        O  0.47348133  0.79471486  0.75026836    -0.71090
O773        O  0.47376617  0.75034440  0.70698510    -0.70950
O774        O  0.47466757  0.75141469  0.79387611    -0.70960
O775        O  0.02413018  0.75102130  0.79272281    -0.70920
O776        O  0.02327268  0.75233090  0.70582370    -0.70940
O777        O  0.02314360  0.79506056  0.75017043    -0.70880
O778        O  0.02436698  0.70819433  0.74817367    -0.71060
V779        V  0.47514816  0.75112205  0.75045477     1.35240
V780        V  0.02278007  0.75163748  0.74926033     1.35170
C781        C  0.99991164  0.69285873  0.74930580     0.78370
C782        C  0.99812863  0.80980079  0.75063353     0.78420
C783        C  0.49841094  0.75085505  0.69141218     0.78290
C784        C  0.49951774  0.75112054  0.80837311     0.78260
O785        O  0.24971052  0.97623087  0.79291088    -0.70870
O786        O  0.25390220  0.97422794  0.70625909    -0.71090
O787        O  0.29530659  0.97648987  0.75117083    -0.70950
O788        O  0.20840564  0.97405018  0.74828950    -0.70960
O789        O  0.20682869  0.52365964  0.75152839    -0.70920
O790        O  0.29370002  0.52596802  0.74596224    -0.70940
O791        O  0.24801443  0.52369593  0.70535604    -0.70880
O792        O  0.25247621  0.52560054  0.79225864    -0.71060
V793        V  0.25183180  0.97617486  0.74961769     1.35240
V794        V  0.25028345  0.52384600  0.74877489     1.35170
C795        C  0.25118368  0.50110213  0.80765328     0.78370
C796        C  0.25076263  0.49857820  0.69104839     0.78420
C797        C  0.30927624  0.00163783  0.74851914     0.78290
C798        C  0.19275863  0.99847605  0.75024433     0.78260
O799        O  0.22615219  0.95611981  0.49861889    -0.70870
O800        O  0.22367513  0.54332633  0.00095907    -0.71090
O801        O  0.22462791  0.00104013  0.95630809    -0.70950
O802        O  0.22459021  0.49818407  0.54307193    -0.70960
O803        O  0.27398095  0.00218658  0.54272798    -0.70920
O804        O  0.27440761  0.49905885  0.95559910    -0.70940
O805        O  0.27331780  0.54406468  0.49761916    -0.70880
O806        O  0.27571823  0.95738455  0.00093449    -0.71060
V807        V  0.22569247  0.99971493  0.49971020     1.35240
V808        V  0.27341272  0.50068785  0.49919333     1.35170
C809        C  0.25143537  0.94187281  0.50038613     0.78370
C810        C  0.24820577  0.55856705  0.49901552     0.78420
C811        C  0.24948015  0.50015810  0.94119896     0.78290
C812        C  0.24917746  0.49961316  0.55787786     0.78260
O813        O  0.00015472  0.72522314  0.95651173    -0.70870
O814        O  0.50146944  0.72546167  0.54336558    -0.71090
O815        O  0.45723436  0.72529754  0.00142891    -0.70950
O816        O  0.04412418  0.72580881  0.49866815    -0.70960
O817        O  0.04342240  0.77522159  0.99927213    -0.70920
O818        O  0.45651627  0.77473237  0.50032534    -0.70940
O819        O  0.99964546  0.77521429  0.54342907    -0.70880
O820        O  0.49997915  0.77501421  0.95649512    -0.71060
V821        V  0.50069800  0.72639737  0.99997343     1.35240
V822        V  0.49995563  0.77409977  0.49992057     1.35170
C823        C  0.50001424  0.75008132  0.94179131     0.78370
C824        C  0.50050062  0.75034678  0.55814459     0.78420
C825        C  0.44179001  0.74992452  0.50128563     0.78290
C826        C  0.05888061  0.75061623  0.49838150     0.78260
O827        O  0.24808687  0.79318635  0.52585922    -0.70870
O828        O  0.24837581  0.70631459  0.52329965    -0.71090
O829        O  0.29156851  0.74962516  0.52796154    -0.70950
O830        O  0.20484710  0.74990673  0.52123920    -0.70960
O831        O  0.20918650  0.75260761  0.97167186    -0.70920
O832        O  0.29582845  0.74909153  0.97831036    -0.70940
O833        O  0.25101804  0.70745475  0.97371397    -0.70880
O834        O  0.25393742  0.79438792  0.97645508    -0.71060
V835        V  0.24827326  0.74976646  0.52362597     1.35240
V836        V  0.25244398  0.75089352  0.97599317     1.35170
C837        C  0.25137545  0.80864223  0.50162793     0.78370
C838        C  0.24925767  0.69198664  0.49810056     0.78420
C839        C  0.30838549  0.74912951  0.50419274     0.78290
C840        C  0.19233627  0.75138153  0.49536900     0.78260
C841        C  0.40729971  0.74969844  0.50265407    -0.04430
C842        C  0.39025827  0.77698832  0.50919606    -0.01550
C843        C  0.35798054  0.77627538  0.51156643     0.03440
C844        C  0.34215390  0.74888514  0.50626899    -0.04430
C845        C  0.35865933  0.72159945  0.00102402    -0.01540
C846        C  0.39089534  0.72194407  0.99845837     0.03440
C847        C  0.40534752  0.80618601  0.51344272     0.38090
C848        C  0.34256246  0.69267610  0.00034912     0.38080
C849        C  0.40657233  0.69352506  0.99052279     0.36500
C850        C  0.34103865  0.80361691  0.52064930     0.36500
N851        N  0.41880478  0.67076356  0.98405066    -0.38320
N852        N  0.32784176  0.82536045  0.52859279    -0.38320
N853        N  0.33029961  0.66928761  0.00081157    -0.37760
N854        N  0.41713393  0.82960290  0.51678090    -0.37770
C855        C  0.09340535  0.75083679  0.49657234    -0.04430
C856        C  0.10985542  0.77891818  0.49764373    -0.01550
C857        C  0.14207978  0.77902658  0.49473367     0.03440
C858        C  0.15858711  0.75134753  0.49315969    -0.04430
C859        C  0.14278334  0.72351503  0.99097116    -0.01540
C860        C  0.11046234  0.72307315  0.99258410     0.03440
C861        C  0.09428848  0.80806864  0.50234424     0.38090
C862        C  0.15981722  0.69531524  0.98552337     0.38080
C863        C  0.09535579  0.69368846  0.98989680     0.36500
C864        C  0.15815663  0.80779865  0.49131585     0.36500
N865        N  0.08356371  0.67013662  0.98768462    -0.38320
N866        N  0.17045190  0.83087924  0.48745117    -0.38320
N867        N  0.17301600  0.67275359  0.98049285    -0.37760
N868        N  0.08217202  0.83143535  0.50631030    -0.37770
C869        C  0.25258887  0.90778272  0.50212672    -0.04430
C870        C  0.23083891  0.89179250  0.52020618    -0.01550
C871        C  0.23160370  0.85949357  0.52149740     0.03440
C872        C  0.25238738  0.84271543  0.50266025    -0.04430
C873        C  0.27446994  0.85870685  0.98502431    -0.01540
C874        C  0.27567238  0.89096270  0.98620773     0.03440
C875        C  0.20832650  0.90852676  0.53857539     0.38090
C876        C  0.29669874  0.84204294  0.96623737     0.38080
C877        C  0.30093090  0.90657703  0.97110903     0.36500
C878        C  0.21058946  0.84369276  0.54199681     0.36500
N879        N  0.32124659  0.91891500  0.95925501    -0.38320
N880        N  0.19386646  0.83116184  0.55842358    -0.38320
N881        N  0.31442496  0.82881929  0.95122822    -0.37760
N882        N  0.19032894  0.92184512  0.55317027    -0.37770
C883        C  0.24810332  0.65782794  0.49737812    -0.04430
C884        C  0.22971947  0.64186951  0.51894554    -0.01550
C885        C  0.22907726  0.60957510  0.51885743     0.03440
C886        C  0.24777192  0.59267644  0.49816308    -0.04430
C887        C  0.26634014  0.60856874  0.97673754    -0.01540
C888        C  0.26557198  0.64087919  0.97554259     0.03440
C889        C  0.21042379  0.65855523  0.54073107     0.38090
C890        C  0.28609801  0.59175416  0.95549260     0.38080
C891        C  0.28333041  0.65646563  0.95202236     0.36500
C892        C  0.20970913  0.59393313  0.54091739     0.36500
N893        N  0.29750981  0.66880451  0.93322896    -0.38320
N894        N  0.19393577  0.58203905  0.55865628    -0.37960
N895        N  0.30193993  0.57841011  0.93860678    -0.37760
N896        N  0.19494220  0.67179067  0.55802899    -0.37770
C897        C  0.25113477  0.50120063  0.84210989    -0.04430
C898        C  0.24404817  0.52828239  0.85908348    -0.01550
C899        C  0.24258578  0.52760784  0.89141787     0.03440
C900        C  0.24935968  0.50043571  0.90731301    -0.04430
C901        C  0.25576693  0.97341961  0.89081134    -0.01540
C902        C  0.25715780  0.97372513  0.85855385     0.03440
C903        C  0.23800154  0.55710587  0.84378467     0.38090
C904        C  0.25864757  0.94457898  0.90689361     0.38080
C905        C  0.26545098  0.94544950  0.84281197     0.36500
C906        C  0.23294006  0.55473371  0.90834240     0.36500
N907        N  0.27220178  0.92283133  0.83050574    -0.38320
N908        N  0.22463234  0.57631690  0.92154571    -0.38320
N909        N  0.26007859  0.92107575  0.91892196    -0.37760
N910        N  0.23334254  0.58028895  0.83187087    -0.37770
C911        C  0.24893814  0.49802817  0.59215649    -0.04430
C912        C  0.27438652  0.98554882  0.60786501    -0.01550
C913        C  0.27446725  0.98473818  0.64016824     0.03440
C914        C  0.24990740  0.49766401  0.65718659    -0.04430
C915        C  0.22406841  0.50904152  0.64184117    -0.01540
C916        C  0.22307539  0.50827903  0.60958076     0.03440
C917        C  0.30008858  0.97213414  0.59105188     0.38090
C918        C  0.19783971  0.52045300  0.65937078     0.38080
C919        C  0.19483490  0.51716729  0.59483099     0.36500
C920        C  0.29992098  0.97052790  0.65591440     0.36500
N921        N  0.17187669  0.52352220  0.58346857    -0.38320
N922        N  0.32008431  0.95895226  0.66844636    -0.38320
N923        N  0.17691431  0.52953594  0.67328822    -0.37760
N924        N  0.32064250  0.96138352  0.57778160    -0.37770
C925        C  0.49970027  0.75083545  0.84284811    -0.04430
C926        C  0.02669496  0.74270503  0.85898464    -0.01550
C927        C  0.02667131  0.74254219  0.89131013     0.03440
C928        C  0.49985802  0.75006466  0.90798546    -0.04430
C929        C  0.47296189  0.75791834  0.89244575    -0.01540
C930        C  0.47277976  0.75855380  0.86014582     0.03440
C931        C  0.05470185  0.73396343  0.84282455     0.38090
C932        C  0.44517544  0.76490087  0.90987523     0.38080
C933        C  0.44468731  0.76772143  0.84523030     0.36500
C934        C  0.05452957  0.73511923  0.90757545     0.36500
N935        N  0.42217128  0.77500099  0.83353036    -0.38320
N936        N  0.07676791  0.72931649  0.92050184    -0.38320
N937        N  0.42302570  0.77033344  0.92377654    -0.37760
N938        N  0.07717871  0.72700283  0.83018296    -0.37770
C939        C  0.49992081  0.75025143  0.59201800    -0.04430
C940        C  0.02466644  0.73778481  0.60826308    -0.01550
C941        C  0.02400282  0.73747705  0.64058316     0.03440
C942        C  0.49837255  0.74968515  0.65709209    -0.04430
C943        C  0.47288286  0.76067142  0.64039720    -0.01540
C944        C  0.47401382  0.76150624  0.60811521     0.03440
C945        C  0.05113189  0.72566183  0.59161867     0.38090
C946        C  0.44488299  0.77041947  0.65592039     0.38080
C947        C  0.44793359  0.77312077  0.59138058     0.36500
C948        C  0.04923895  0.72311950  0.65653016     0.36500
N949        N  0.42698754  0.78238634  0.57830252    -0.38320
N950        N  0.06932711  0.71153130  0.66917244    -0.38320
N951        N  0.42205873  0.77756463  0.66778021    -0.37760
N952        N  0.07219048  0.71601316  0.57829693    -0.37770
C953        C  0.15869006  0.49766237  0.75130647    -0.04430
C954        C  0.14224559  0.51548641  0.77313505    -0.01550
C955        C  0.10995611  0.51475345  0.77432745     0.03440
C956        C  0.09361585  0.49754662  0.75252403    -0.04430
C957        C  0.11007834  0.97887798  0.73138221    -0.01540
C958        C  0.14242583  0.97883844  0.73085901     0.03440
C959        C  0.15845721  0.53433986  0.79488771     0.38090
C960        C  0.09378764  0.95848218  0.71108998     0.38080
C961        C  0.15886625  0.96002422  0.70856034     0.36500
C962        C  0.09376090  0.53200260  0.79804861     0.36500
N963        N  0.17193864  0.94498994  0.69078094    -0.38320
N964        N  0.08098539  0.54576388  0.81703626    -0.38320
N965        N  0.08075154  0.94207386  0.69510234    -0.37760
N966        N  0.17112157  0.54961081  0.81221686    -0.37770
C967        C  0.34318551  0.50247048  0.74870841    -0.04430
C968        C  0.35907000  0.99240590  0.77468123    -0.01550
C969        C  0.39138134  0.99199454  0.77469697     0.03440
C970        C  0.40836726  0.50173096  0.74849659    -0.04430
C971        C  0.39207779  0.51163816  0.72231321    -0.01540
C972        C  0.35972699  0.51279100  0.72284735     0.03440
C973        C  0.34211752  0.98372812  0.80210191     0.38090
C974        C  0.40820908  0.52104437  0.69466317     0.38080
C975        C  0.34340487  0.52481746  0.69672606     0.36500
C976        C  0.40676547  0.98061146  0.80167696     0.36500
N977        N  0.33046288  0.53473012  0.67600861    -0.38320
N978        N  0.41886978  0.97157070  0.82328439    -0.38320
N979        N  0.42087802  0.52847110  0.67247158    -0.37760
N980        N  0.32889885  0.97708553  0.82421363    -0.37770
C981        C  0.99792526  0.84397989  0.75175541    -0.04430
C982        C  0.01968174  0.85981194  0.76956347    -0.01550
C983        C  0.02027137  0.89214275  0.76974220     0.03440
C984        C  0.99901335  0.90897777  0.75240626    -0.04430
C985        C  0.47691650  0.89337186  0.73516555    -0.01540
C986        C  0.47632142  0.86107684  0.73484209     0.03440
C987        C  0.04102825  0.84300407  0.78849553     0.38090
C988        C  0.45427511  0.91062725  0.71816023     0.38080
C989        C  0.45372741  0.84575152  0.71641189     0.36500
C990        C  0.04348310  0.90809734  0.78696821     0.36500
N991        N  0.43536230  0.83404863  0.70168405    -0.38320
N992        N  0.06203100  0.92086669  0.80059658    -0.38320
N993        N  0.43622675  0.92440425  0.70465931    -0.37760
N994        N  0.05802914  0.82963757  0.80364006    -0.37770
C995        C  0.50173376  0.59319580  0.74724679    -0.04430
C996        C  0.47413802  0.60915525  0.74233191    -0.01550
C997        C  0.47359459  0.64149634  0.74198352     0.03440
C998        C  0.00050776  0.65840514  0.74856019    -0.04430
C999        C  0.02814029  0.64190611  0.75390997    -0.01540
C1000       C  0.02886930  0.60966019  0.75176316     0.03440
C1001       C  0.44606554  0.59227722  0.73773276     0.38090
C1002       C  0.05598052  0.65755140  0.76249448     0.38080
C1003       C  0.05800457  0.59359427  0.75239512     0.36500
C1004       C  0.44520495  0.65687045  0.73410642     0.36500
N1005       N  0.08163953  0.58148210  0.75187803    -0.38320
N1006       N  0.42249999  0.66890185  0.72765554    -0.38320
N1007       N  0.07822077  0.66981019  0.76957141    -0.37760
N1008       N  0.42341105  0.57923336  0.73424706    -0.37770
O1009       O  0.49870553  0.45842335  0.27620050    -0.70870
O1010       O  0.00214659  0.04538980  0.27354156    -0.71090
O1011       O  0.95698333  0.50391469  0.27376649    -0.70950
O1012       O  0.54368748  0.99972957  0.27605193    -0.70960
O1013       O  0.54564200  0.50001018  0.22639684    -0.70920
O1014       O  0.95856201  0.00002283  0.22439343    -0.70940
O1015       O  0.50176611  0.04373574  0.22381029    -0.70880
O1016       O  0.00218110  0.45684907  0.22654846    -0.71060
V1017       V  0.00039311  0.50187081  0.27393248     1.35240
V1018       V  0.00206211  0.00025061  0.22623075     1.35170
C1019       C  0.00009554  0.44287308  0.25175794     0.78370
C1020       C  0.00204530  0.05931156  0.24820905     0.78420
C1021       C  0.94275493  0.00192515  0.24883639     0.78290
C1022       C  0.55952759  0.99915863  0.25163199     0.78260
O1023       O  0.97494894  0.20765774  0.25092721    -0.70870
O1024       O  0.97348133  0.29471487  0.25026835    -0.71090
O1025       O  0.97376617  0.25034441  0.20698510    -0.70950
O1026       O  0.97466757  0.25141471  0.29387611    -0.70960
O1027       O  0.52413018  0.25102131  0.29272281    -0.70920
O1028       O  0.52327268  0.25233091  0.20582370    -0.70940
O1029       O  0.52314360  0.29506057  0.25017043    -0.70880
O1030       O  0.52436698  0.20819434  0.24817367    -0.71060
V1031       V  0.97514815  0.25112206  0.25045477     1.35240
V1032       V  0.52278008  0.25163750  0.24926033     1.35170
C1033       C  0.49991164  0.19285874  0.24930580     0.78370
C1034       C  0.49812864  0.30980080  0.25063352     0.78420
C1035       C  0.99841094  0.25085506  0.19141218     0.78290
C1036       C  0.99951774  0.25112056  0.30837311     0.78260
O1037       O  0.74971053  0.47623086  0.29291088    -0.70870
O1038       O  0.75390221  0.47422794  0.20625909    -0.71090
O1039       O  0.79530660  0.47648986  0.25117083    -0.70950
O1040       O  0.70840564  0.47405018  0.24828950    -0.70960
O1041       O  0.70682870  0.02365965  0.25152839    -0.70920
O1042       O  0.79370002  0.02596802  0.24596225    -0.70940
O1043       O  0.74801444  0.02369594  0.20535605    -0.70880
O1044       O  0.75247621  0.02560054  0.29225864    -0.71060
V1045       V  0.75183181  0.47617486  0.24961769     1.35240
V1046       V  0.75028345  0.02384600  0.24877489     1.35170
C1047       C  0.75118368  0.00110212  0.30765328     0.78370
C1048       C  0.75076264  0.99857821  0.19104839     0.78420
C1049       C  0.80927624  0.50163783  0.24851914     0.78290
C1050       C  0.69275863  0.49847605  0.25024433     0.78260
O1051       O  0.72615222  0.45611982  0.99861889    -0.70870
O1052       O  0.72367512  0.04332631  0.50095908    -0.71090
O1053       O  0.72462790  0.50104012  0.45630809    -0.70950
O1054       O  0.72459023  0.99818409  0.04307193    -0.70960
O1055       O  0.77398097  0.50218661  0.04272798    -0.70920
O1056       O  0.77440759  0.99905884  0.45559910    -0.70940
O1057       O  0.77331782  0.04406471  0.99761916    -0.70880
O1058       O  0.77571821  0.45738453  0.50093449    -0.71060
V1059       V  0.72569249  0.49971495  0.99971020     1.35240
V1060       V  0.77341274  0.00068788  0.99919333     1.35170
C1061       C  0.75143540  0.44187283  0.00038614     0.78370
C1062       C  0.74820578  0.05856707  0.99901552     0.78420
C1063       C  0.74948012  0.00015808  0.44119896     0.78290
C1064       C  0.74917748  0.99961319  0.05787786     0.78260
O1065       O  0.50015472  0.22522316  0.45651173    -0.70870
O1066       O  0.00146943  0.22546167  0.04336558    -0.71090
O1067       O  0.95723437  0.22529756  0.50142893    -0.70950
O1068       O  0.54412417  0.22580879  0.99866818    -0.70960
O1069       O  0.54342241  0.27522161  0.49927214    -0.70920
O1070       O  0.95651627  0.27473236  0.00032534    -0.70940
O1071       O  0.49964546  0.27521429  0.04342906    -0.70880
O1072       O  0.99997917  0.27501424  0.45649512    -0.71060
V1073       V  0.00069801  0.22639739  0.49997342     1.35240
V1074       V  0.99995562  0.27409976  0.99992056     1.35170
C1075       C  0.00001424  0.25008134  0.44179131     0.78370
C1076       C  0.00050061  0.25034678  0.05814459     0.78420
C1077       C  0.94179000  0.24992451  0.00128562     0.78290
C1078       C  0.55888061  0.25061622  0.99838151     0.78260
O1079       O  0.74808689  0.29318636  0.02585924    -0.70870
O1080       O  0.74837579  0.20631461  0.02329965    -0.71090
O1081       O  0.79156851  0.24962516  0.02796154    -0.70950
O1082       O  0.70484710  0.24990676  0.02123922    -0.70960
O1083       O  0.70918651  0.25260759  0.47167187    -0.70920
O1084       O  0.79582846  0.24909151  0.47831036    -0.70940
O1085       O  0.75101805  0.20745473  0.47371398    -0.70880
O1086       O  0.75393743  0.29438790  0.47645507    -0.71060
V1087       V  0.74827326  0.24976648  0.02362598     1.35240
V1088       V  0.75244399  0.25089350  0.47599317     1.35170
C1089       C  0.75137546  0.30864225  0.00162795     0.78370
C1090       C  0.74925766  0.19198667  0.99810055     0.78420
C1091       C  0.80838548  0.24912952  0.00419274     0.78290
C1092       C  0.69233626  0.25138156  0.99536901     0.78260
C1093       C  0.90729970  0.24969844  0.00265406    -0.04430
C1094       C  0.89025827  0.27698832  0.00919605    -0.01550
C1095       C  0.85798054  0.27627539  0.01156642     0.03440
C1096       C  0.84215390  0.24888515  0.00626899    -0.04430
C1097       C  0.85865935  0.22159945  0.50102401    -0.01540
C1098       C  0.89089535  0.22194408  0.49845837     0.03440
C1099       C  0.90534752  0.30618601  0.01344271     0.38090
C1100       C  0.84256248  0.19267610  0.50034910     0.38080
C1101       C  0.90657235  0.19352507  0.49052279     0.36500
C1102       C  0.84103865  0.30361691  0.02064930     0.36500
N1103       N  0.91880481  0.17076358  0.48405066    -0.38320
N1104       N  0.82784177  0.32536045  0.02859279    -0.38320
N1105       N  0.83029963  0.16928761  0.50081154    -0.37760
N1106       N  0.91713394  0.32960290  0.01678090    -0.37770
C1107       C  0.59340534  0.25083679  0.99657237    -0.04430
C1108       C  0.60985541  0.27891817  0.99764384    -0.01550
C1109       C  0.64207977  0.27902660  0.99473376     0.03440
C1110       C  0.65858710  0.25134755  0.99315972    -0.04430
C1111       C  0.64278335  0.22351502  0.49097120    -0.01540
C1112       C  0.61046234  0.22307314  0.49258414     0.03440
C1113       C  0.59428846  0.30806862  0.00234446     0.38090
C1114       C  0.65981722  0.19531522  0.48552343     0.38080
C1115       C  0.59535579  0.19368845  0.48989688     0.36500
C1116       C  0.65815660  0.30779868  0.99131599     0.36500
N1117       N  0.58356371  0.17013662  0.48768474    -0.38320
N1118       N  0.67045185  0.33087928  0.98745135    -0.38320
N1119       N  0.67301599  0.17275355  0.48049293    -0.37760
N1120       N  0.58217200  0.33143531  0.00631061    -0.37770
C1121       C  0.75258890  0.40778274  0.00212674    -0.04430
C1122       C  0.73083895  0.39179253  0.02020621    -0.01550
C1123       C  0.73160374  0.35949359  0.02149744     0.03440
C1124       C  0.75238741  0.34271545  0.00266027    -0.04430
C1125       C  0.77446993  0.35870684  0.48502429    -0.01540
C1126       C  0.77567236  0.39096269  0.48620771     0.03440
C1127       C  0.70832654  0.40852679  0.03857542     0.38090
C1128       C  0.79669873  0.34204293  0.46623736     0.38080
C1129       C  0.80093087  0.40657702  0.47110899     0.36500
C1130       C  0.71058952  0.34369280  0.04199687     0.36500
N1131       N  0.82124655  0.41891499  0.45925496    -0.38320
N1132       N  0.69386654  0.33116188  0.05842367    -0.38320
N1133       N  0.81442495  0.32881928  0.45122821    -0.37760
N1134       N  0.69032898  0.42184515  0.05317029    -0.37770
C1135       C  0.74810330  0.15782797  0.99737811    -0.04430
C1136       C  0.72971944  0.14186953  0.01894552    -0.01550
C1137       C  0.72907724  0.10957512  0.01885741     0.03440
C1138       C  0.74777192  0.09267646  0.99816308    -0.04430
C1139       C  0.76634013  0.10856871  0.47673755    -0.01540
C1140       C  0.76557198  0.14087917  0.47554260     0.03440
C1141       C  0.71042374  0.15855525  0.04073103     0.38090
C1142       C  0.78609800  0.09175413  0.45549260     0.38080
C1143       C  0.78333040  0.15646561  0.45202236     0.36500
C1144       C  0.70970910  0.09393315  0.04091736     0.36500
N1145       N  0.79750979  0.16880448  0.43322896    -0.38320
N1146       N  0.69393573  0.08203906  0.05865624    -0.37960
N1147       N  0.80193991  0.07841008  0.43860677    -0.37760
N1148       N  0.69494214  0.17179069  0.05802893    -0.37770
C1149       C  0.75113476  0.00120062  0.34210989    -0.04430
C1150       C  0.74404817  0.02828238  0.35908349    -0.01550
C1151       C  0.74258577  0.02760783  0.39141788     0.03440
C1152       C  0.74935966  0.00043569  0.40731301    -0.04430
C1153       C  0.75576690  0.47341959  0.39081134    -0.01540
C1154       C  0.75715778  0.47372511  0.35855385     0.03440
C1155       C  0.73800155  0.05710586  0.34378467     0.38090
C1156       C  0.75864751  0.44457896  0.40689361     0.38080
C1157       C  0.76545095  0.44544948  0.34281197     0.36500
C1158       C  0.73294005  0.05473370  0.40834240     0.36500
N1159       N  0.77220175  0.42283131  0.33050574    -0.38320
N1160       N  0.72463232  0.07631689  0.42154571    -0.38320
N1161       N  0.76007851  0.42107572  0.41892196    -0.37760
N1162       N  0.73334256  0.08028895  0.33187087    -0.37770
C1163       C  0.74893816  0.99802819  0.09215649    -0.04430
C1164       C  0.77438654  0.48554885  0.10786501    -0.01550
C1165       C  0.77446726  0.48473820  0.14016824     0.03440
C1166       C  0.74990741  0.99766403  0.15718659    -0.04430
C1167       C  0.72406843  0.00904154  0.14184117    -0.01540
C1168       C  0.72307541  0.00827905  0.10958076     0.03440
C1169       C  0.80008861  0.47213419  0.09105188     0.38090
C1170       C  0.69783972  0.02045300  0.15937078     0.38080
C1171       C  0.69483492  0.01716731  0.09483099     0.36500
C1172       C  0.79992099  0.47052792  0.15591441     0.36500
N1173       N  0.67187671  0.02352221  0.08346857    -0.38320
N1174       N  0.82008433  0.45895228  0.16844636    -0.38320
N1175       N  0.67691431  0.02953593  0.17328822    -0.37760
N1176       N  0.82064254  0.46138358  0.07778160    -0.37770
C1177       C  0.99970027  0.25083548  0.34284811    -0.04430
C1178       C  0.52669496  0.24270505  0.35898464    -0.01550
C1179       C  0.52667132  0.24254221  0.39131013     0.03440
C1180       C  0.99985803  0.25006470  0.40798546    -0.04430
C1181       C  0.97296189  0.25791836  0.39244575    -0.01540
C1182       C  0.97277976  0.25855382  0.36014582     0.03440
C1183       C  0.55470186  0.23396344  0.34282455     0.38090
C1184       C  0.94517544  0.26490089  0.40987523     0.38080
C1185       C  0.94468731  0.26772145  0.34523030     0.36500
C1186       C  0.55452958  0.23511924  0.40757546     0.36500
N1187       N  0.92217127  0.27500099  0.33353036    -0.38320
N1188       N  0.57676791  0.22931650  0.42050184    -0.38320
N1189       N  0.92302570  0.27033347  0.42377654    -0.37760
N1190       N  0.57717871  0.22700284  0.33018296    -0.37770
C1191       C  0.99992080  0.25025144  0.09201800    -0.04430
C1192       C  0.52466644  0.23778482  0.10826308    -0.01550
C1193       C  0.52400282  0.23747707  0.14058316     0.03440
C1194       C  0.99837255  0.24968516  0.15709209    -0.04430
C1195       C  0.97288285  0.26067141  0.14039720    -0.01540
C1196       C  0.97401381  0.26150624  0.10811521     0.03440
C1197       C  0.55113189  0.22566185  0.09161867     0.38090
C1198       C  0.94488298  0.27041946  0.15592039     0.38080
C1199       C  0.94793357  0.27312076  0.09138058     0.36500
C1200       C  0.54923896  0.22311953  0.15653015     0.36500
N1201       N  0.92698752  0.28238632  0.07830252    -0.38320
N1202       N  0.56932713  0.21153135  0.16917243    -0.38320
N1203       N  0.92205871  0.27756461  0.16778021    -0.37760
N1204       N  0.57219048  0.21601320  0.07829693    -0.37770
C1205       C  0.65869007  0.99766237  0.25130646    -0.04430
C1206       C  0.64224559  0.01548641  0.27313505    -0.01550
C1207       C  0.60995611  0.01475346  0.27432745     0.03440
C1208       C  0.59361585  0.99754663  0.25252403    -0.04430
C1209       C  0.61007834  0.47887799  0.23138221    -0.01540
C1210       C  0.64242583  0.47883844  0.23085901     0.03440
C1211       C  0.65845722  0.03433985  0.29488771     0.38090
C1212       C  0.59378764  0.45848219  0.21108998     0.38080
C1213       C  0.65886625  0.46002421  0.20856034     0.36500
C1214       C  0.59376091  0.03200260  0.29804861     0.36500
N1215       N  0.67193864  0.44498993  0.19078095    -0.38320
N1216       N  0.58098540  0.04576388  0.31703626    -0.38320
N1217       N  0.58075154  0.44207387  0.19510234    -0.37760
N1218       N  0.67112158  0.04961080  0.31221687    -0.37770
C1219       C  0.84318552  0.00247048  0.24870842    -0.04430
C1220       C  0.85907001  0.49240589  0.27468123    -0.01550
C1221       C  0.89138135  0.49199454  0.27469696     0.03440
C1222       C  0.90836726  0.00173096  0.24849659    -0.04430
C1223       C  0.89207780  0.01163817  0.22231321    -0.01540
C1224       C  0.85972699  0.01279101  0.22284736     0.03440
C1225       C  0.84211753  0.48372809  0.30210190     0.38090
C1226       C  0.90820908  0.02104438  0.19466316     0.38080
C1227       C  0.84340487  0.02481748  0.19672608     0.36500
C1228       C  0.90676548  0.48061145  0.30167694     0.36500
N1229       N  0.83046288  0.03473015  0.17600862    -0.38320
N1230       N  0.91886979  0.47157068  0.32328437    -0.38320
N1231       N  0.92087802  0.02847110  0.17247158    -0.37760
N1232       N  0.82889886  0.47708549  0.32421361    -0.37770
C1233       C  0.49792526  0.34397990  0.25175540    -0.04430
C1234       C  0.51968174  0.35981195  0.26956346    -0.01550
C1235       C  0.52027137  0.39214276  0.26974219     0.03440
C1236       C  0.49901336  0.40897779  0.25240625    -0.04430
C1237       C  0.97691653  0.39337187  0.23516551    -0.01540
C1238       C  0.97632145  0.36107685  0.23484206     0.03440
C1239       C  0.54102825  0.34300408  0.28849553     0.38090
C1240       C  0.95427514  0.41062726  0.21816017     0.38080
C1241       C  0.95372745  0.34575153  0.21641184     0.36500
C1242       C  0.54348310  0.40809735  0.28696821     0.36500
N1243       N  0.93536236  0.33404864  0.20168398    -0.38320
N1244       N  0.56203100  0.42086670  0.30059658    -0.38320
N1245       N  0.93622680  0.42440426  0.20465924    -0.37760
N1246       N  0.55802913  0.32963758  0.30364007    -0.37770
C1247       C  0.00173375  0.09319581  0.24724679    -0.04430
C1248       C  0.97413802  0.10915526  0.24233191    -0.01550
C1249       C  0.97359458  0.14149636  0.24198352     0.03440
C1250       C  0.50050776  0.15840515  0.24856020    -0.04430
C1251       C  0.52814029  0.14190613  0.25390998    -0.01540
C1252       C  0.52886930  0.10966021  0.25176317     0.03440
C1253       C  0.94606554  0.09227724  0.23773274     0.38090
C1254       C  0.55598051  0.15755141  0.26249449     0.38080
C1255       C  0.55800457  0.09359429  0.25239514     0.36500
C1256       C  0.94520495  0.15687046  0.23410641     0.36500
N1257       N  0.58163953  0.08148212  0.25187806    -0.38320
N1258       N  0.92249999  0.16890187  0.22765553    -0.38320
N1259       N  0.57822076  0.16981020  0.26957143    -0.37760
N1260       N  0.92341105  0.07923337  0.23424703    -0.37770
O1261       O  0.49870552  0.45842334  0.77620051    -0.70870
O1262       O  0.00214659  0.04538979  0.77354157    -0.71090
O1263       O  0.95698333  0.50391468  0.77376649    -0.70950
O1264       O  0.54368747  0.99972956  0.77605193    -0.70960
O1265       O  0.54564200  0.50001016  0.72639684    -0.70920
O1266       O  0.95856201  0.00002282  0.72439344    -0.70940
O1267       O  0.50176611  0.04373572  0.72381029    -0.70880
O1268       O  0.00218109  0.45684905  0.72654847    -0.71060
V1269       V  0.00039310  0.50187080  0.77393249     1.35240
V1270       V  0.00206210  0.00025059  0.72623075     1.35170
C1271       C  0.00009553  0.44287307  0.75175796     0.78370
C1272       C  0.00204529  0.05931155  0.74820906     0.78420
C1273       C  0.94275493  0.00192514  0.74883639     0.78290
C1274       C  0.55952759  0.99915862  0.75163200     0.78260
O1275       O  0.97494894  0.20765772  0.75092720    -0.70870
O1276       O  0.97348132  0.29471486  0.75026836    -0.71090
O1277       O  0.97376616  0.25034440  0.70698510    -0.70950
O1278       O  0.97466756  0.25141469  0.79387611    -0.70960
O1279       O  0.52413018  0.25102130  0.79272281    -0.70920
O1280       O  0.52327268  0.25233089  0.70582370    -0.70940
O1281       O  0.52314361  0.29506056  0.75017043    -0.70880
O1282       O  0.52436699  0.20819433  0.74817367    -0.71060
V1283       V  0.97514815  0.25112205  0.75045477     1.35240
V1284       V  0.52278008  0.25163748  0.74926033     1.35170
C1285       C  0.49991164  0.19285873  0.74930580     0.78370
C1286       C  0.49812864  0.30980078  0.75063353     0.78420
C1287       C  0.99841094  0.25085505  0.69141218     0.78290
C1288       C  0.99951774  0.25112055  0.80837311     0.78260
O1289       O  0.74971052  0.47623087  0.79291089    -0.70870
O1290       O  0.75390220  0.47422794  0.70625909    -0.71090
O1291       O  0.79530659  0.47648987  0.75117084    -0.70950
O1292       O  0.70840564  0.47405019  0.74828950    -0.70960
O1293       O  0.70682870  0.02365965  0.75152839    -0.70920
O1294       O  0.79370002  0.02596802  0.74596224    -0.70940
O1295       O  0.74801443  0.02369593  0.70535604    -0.70880
O1296       O  0.75247621  0.02560055  0.79225864    -0.71060
V1297       V  0.75183180  0.47617486  0.74961770     1.35240
V1298       V  0.75028345  0.02384600  0.74877489     1.35170
C1299       C  0.75118368  0.00110213  0.80765328     0.78370
C1300       C  0.75076263  0.99857820  0.69104839     0.78420
C1301       C  0.80927624  0.50163783  0.74851914     0.78290
C1302       C  0.69275863  0.49847605  0.75024433     0.78260
O1303       O  0.72615219  0.45611981  0.49861889    -0.70870
O1304       O  0.72367513  0.04332633  0.00095907    -0.71090
O1305       O  0.72462791  0.50104013  0.95630809    -0.70950
O1306       O  0.72459020  0.99818407  0.54307193    -0.70960
O1307       O  0.77398095  0.50218658  0.54272798    -0.70920
O1308       O  0.77440762  0.99905886  0.95559910    -0.70940
O1309       O  0.77331780  0.04406468  0.49761917    -0.70880
O1310       O  0.77571823  0.45738456  0.00093449    -0.71060
V1311       V  0.72569247  0.49971493  0.49971020     1.35240
V1312       V  0.77341271  0.00068785  0.49919333     1.35170
C1313       C  0.75143538  0.44187280  0.50038613     0.78370
C1314       C  0.74820576  0.05856705  0.49901552     0.78420
C1315       C  0.74948015  0.00015810  0.94119896     0.78290
C1316       C  0.74917745  0.99961316  0.55787787     0.78260
O1317       O  0.50015474  0.22522313  0.95651173    -0.70870
O1318       O  0.00146944  0.22546168  0.54336558    -0.71090
O1319       O  0.95723437  0.22529755  0.00142892    -0.70950
O1320       O  0.54412418  0.22580881  0.49866815    -0.70960
O1321       O  0.54342240  0.27522159  0.99927213    -0.70920
O1322       O  0.95651628  0.27473237  0.50032534    -0.70940
O1323       O  0.49964546  0.27521430  0.54342907    -0.70880
O1324       O  0.99997916  0.27501422  0.95649512    -0.71060
V1325       V  0.00069801  0.22639737  0.99997342     1.35240
V1326       V  0.99995563  0.27409978  0.49992056     1.35170
C1327       C  0.00001424  0.25008133  0.94179131     0.78370
C1328       C  0.00050062  0.25034679  0.55814459     0.78420
C1329       C  0.94179001  0.24992452  0.50128563     0.78290
C1330       C  0.55888061  0.25061624  0.49838150     0.78260
O1331       O  0.74808688  0.29318635  0.52585922    -0.70870
O1332       O  0.74837581  0.20631459  0.52329965    -0.71090
O1333       O  0.79156851  0.24962516  0.52796154    -0.70950
O1334       O  0.70484711  0.24990673  0.52123920    -0.70960
O1335       O  0.70918650  0.25260761  0.97167188    -0.70920
O1336       O  0.79582845  0.24909154  0.97831036    -0.70940
O1337       O  0.75101804  0.20745476  0.97371398    -0.70880
O1338       O  0.75393742  0.29438793  0.97645509    -0.71060
V1339       V  0.74827327  0.24976646  0.52362597     1.35240
V1340       V  0.75244398  0.25089353  0.97599318     1.35170
C1341       C  0.75137545  0.30864223  0.50162793     0.78370
C1342       C  0.74925768  0.19198664  0.49810056     0.78420
C1343       C  0.80838549  0.24912951  0.50419274     0.78290
C1344       C  0.69233627  0.25138153  0.49536899     0.78260
C1345       C  0.90729971  0.24969844  0.50265407    -0.04430
C1346       C  0.89025827  0.27698832  0.50919606    -0.01550
C1347       C  0.85798054  0.27627539  0.51156643     0.03440
C1348       C  0.84215391  0.24888514  0.50626899    -0.04430
C1349       C  0.85865934  0.22159945  0.00102401    -0.01540
C1350       C  0.89089534  0.22194407  0.99845836     0.03440
C1351       C  0.90534752  0.30618601  0.51344271     0.38090
C1352       C  0.84256247  0.19267610  0.00034910     0.38080
C1353       C  0.90657234  0.19352507  0.99052277     0.36500
C1354       C  0.84103865  0.30361691  0.52064930     0.36500
N1355       N  0.91880479  0.17076357  0.98405064    -0.38320
N1356       N  0.82784176  0.32536045  0.52859279    -0.38320
N1357       N  0.83029961  0.16928761  0.00081155    -0.37760
N1358       N  0.91713393  0.32960291  0.51678089    -0.37770
C1359       C  0.59340535  0.25083680  0.49657234    -0.04430
C1360       C  0.60985543  0.27891818  0.49764373    -0.01550
C1361       C  0.64207979  0.27902659  0.49473367     0.03440
C1362       C  0.65858711  0.25134753  0.49315969    -0.04430
C1363       C  0.64278335  0.22351503  0.99097116    -0.01540
C1364       C  0.61046234  0.22307315  0.99258410     0.03440
C1365       C  0.59428848  0.30806865  0.50234424     0.38090
C1366       C  0.65981723  0.19531526  0.98552335     0.38080
C1367       C  0.59535579  0.19368846  0.98989676     0.36500
C1368       C  0.65815663  0.30779866  0.49131585     0.36500
N1369       N  0.58356371  0.17013663  0.98768455    -0.38320
N1370       N  0.67045190  0.33087924  0.48745117    -0.38320
N1371       N  0.67301601  0.17275360  0.98049282    -0.37760
N1372       N  0.58217202  0.33143535  0.50631030    -0.37770
C1373       C  0.75258888  0.40778272  0.50212672    -0.04430
C1374       C  0.73083892  0.39179251  0.52020618    -0.01550
C1375       C  0.73160370  0.35949357  0.52149740     0.03440
C1376       C  0.75238738  0.34271543  0.50266025    -0.04430
C1377       C  0.77446995  0.35870685  0.98502431    -0.01540
C1378       C  0.77567239  0.39096270  0.98620773     0.03440
C1379       C  0.70832650  0.40852676  0.53857539     0.38090
C1380       C  0.79669874  0.34204294  0.96623737     0.38080
C1381       C  0.80093090  0.40657704  0.97110902     0.36500
C1382       C  0.71058946  0.34369276  0.54199681     0.36500
N1383       N  0.82124658  0.41891500  0.95925499    -0.38320
N1384       N  0.69386646  0.33116184  0.55842358    -0.38320
N1385       N  0.81442495  0.32881929  0.95122821    -0.37760
N1386       N  0.69032895  0.42184512  0.55317027    -0.37770
C1387       C  0.74810332  0.15782794  0.49737812    -0.04430
C1388       C  0.72971946  0.14186951  0.51894554    -0.01550
C1389       C  0.72907726  0.10957510  0.51885742     0.03440
C1390       C  0.74777191  0.09267644  0.49816308    -0.04430
C1391       C  0.76634014  0.10856874  0.97673754    -0.01540
C1392       C  0.76557197  0.14087920  0.97554259     0.03440
C1393       C  0.71042378  0.15855524  0.54073107     0.38090
C1394       C  0.78609801  0.09175416  0.95549260     0.38080
C1395       C  0.78333039  0.15646564  0.95202236     0.36500
C1396       C  0.70970912  0.09393314  0.54091739     0.36500
N1397       N  0.79750979  0.16880451  0.93322896    -0.38320
N1398       N  0.69393575  0.08203906  0.55865627    -0.37960
N1399       N  0.80193993  0.07841012  0.93860678    -0.37760
N1400       N  0.69494220  0.17179068  0.55802898    -0.37770
C1401       C  0.75113476  0.00120063  0.84210989    -0.04430
C1402       C  0.74404817  0.02828240  0.85908349    -0.01550
C1403       C  0.74258578  0.02760784  0.89141788     0.03440
C1404       C  0.74935968  0.00043571  0.90731301    -0.04430
C1405       C  0.75576692  0.47341961  0.89081134    -0.01540
C1406       C  0.75715779  0.47372513  0.85855385     0.03440
C1407       C  0.73800154  0.05710587  0.84378467     0.38090
C1408       C  0.75864756  0.44457898  0.90689361     0.38080
C1409       C  0.76545097  0.44544950  0.84281197     0.36500
C1410       C  0.73294006  0.05473371  0.90834240     0.36500
N1411       N  0.77220177  0.42283133  0.83050574    -0.38320
N1412       N  0.72463234  0.07631691  0.92154571    -0.38320
N1413       N  0.76007858  0.42107575  0.91892196    -0.37760
N1414       N  0.73334254  0.08028895  0.83187087    -0.37770
C1415       C  0.74893813  0.99802817  0.59215650    -0.04430
C1416       C  0.77438653  0.48554882  0.60786501    -0.01550
C1417       C  0.77446725  0.48473818  0.64016824     0.03440
C1418       C  0.74990740  0.99766402  0.65718659    -0.04430
C1419       C  0.72406841  0.00904153  0.64184117    -0.01540
C1420       C  0.72307539  0.00827904  0.60958076     0.03440
C1421       C  0.80008859  0.47213415  0.59105188     0.38090
C1422       C  0.69783972  0.02045302  0.65937078     0.38080
C1423       C  0.69483490  0.01716730  0.59483100     0.36500
C1424       C  0.79992098  0.47052790  0.65591441     0.36500
N1425       N  0.67187669  0.02352221  0.58346858    -0.38320
N1426       N  0.82008432  0.45895226  0.66844637    -0.38320
N1427       N  0.67691431  0.02953596  0.67328822    -0.37760
N1428       N  0.82064251  0.46138353  0.57778160    -0.37770
C1429       C  0.99970026  0.25083546  0.84284811    -0.04430
C1430       C  0.52669496  0.24270502  0.85898464    -0.01550
C1431       C  0.52667132  0.24254218  0.89131013     0.03440
C1432       C  0.99985802  0.25006467  0.90798546    -0.04430
C1433       C  0.97296188  0.25791835  0.89244575    -0.01540
C1434       C  0.97277975  0.25855381  0.86014582     0.03440
C1435       C  0.55470186  0.23396343  0.84282455     0.38090
C1436       C  0.94517544  0.26490088  0.90987523     0.38080
C1437       C  0.94468730  0.26772144  0.84523030     0.36500
C1438       C  0.55452958  0.23511922  0.90757545     0.36500
N1439       N  0.92217127  0.27500099  0.83353036    -0.38320
N1440       N  0.57676792  0.22931648  0.92050184    -0.38320
N1441       N  0.92302570  0.27033345  0.92377654    -0.37760
N1442       N  0.57717872  0.22700282  0.83018296    -0.37770
C1443       C  0.99992081  0.25025144  0.59201800    -0.04430
C1444       C  0.52466644  0.23778481  0.60826308    -0.01550
C1445       C  0.52400282  0.23747705  0.64058316     0.03440
C1446       C  0.99837254  0.24968515  0.65709209    -0.04430
C1447       C  0.97288286  0.26067142  0.64039720    -0.01540
C1448       C  0.97401382  0.26150625  0.60811521     0.03440
C1449       C  0.55113189  0.22566183  0.59161867     0.38090
C1450       C  0.94488299  0.27041948  0.65592039     0.38080
C1451       C  0.94793359  0.27312078  0.59138058     0.36500
C1452       C  0.54923895  0.22311949  0.65653016     0.36500
N1453       N  0.92698754  0.28238635  0.57830252    -0.38320
N1454       N  0.56932711  0.21153130  0.66917244    -0.38320
N1455       N  0.92205872  0.27756464  0.66778021    -0.37760
N1456       N  0.57219048  0.21601316  0.57829693    -0.37770
C1457       C  0.65869006  0.99766238  0.75130646    -0.04430
C1458       C  0.64224559  0.01548641  0.77313505    -0.01550
C1459       C  0.60995611  0.01475345  0.77432745     0.03440
C1460       C  0.59361585  0.99754663  0.75252403    -0.04430
C1461       C  0.61007834  0.47887798  0.73138221    -0.01540
C1462       C  0.64242583  0.47883844  0.73085901     0.03440
C1463       C  0.65845721  0.03433986  0.79488771     0.38090
C1464       C  0.59378764  0.45848218  0.71108998     0.38080
C1465       C  0.65886625  0.46002422  0.70856033     0.36500
C1466       C  0.59376090  0.03200260  0.79804861     0.36500
N1467       N  0.67193864  0.44498994  0.69078094    -0.38320
N1468       N  0.58098539  0.04576388  0.81703626    -0.38320
N1469       N  0.58075155  0.44207386  0.69510234    -0.37760
N1470       N  0.67112157  0.04961081  0.81221686    -0.37770
C1471       C  0.84318551  0.00247048  0.74870842    -0.04430
C1472       C  0.85907000  0.49240589  0.77468123    -0.01550
C1473       C  0.89138134  0.49199453  0.77469697     0.03440
C1474       C  0.90836726  0.00173096  0.74849660    -0.04430
C1475       C  0.89207779  0.01163816  0.72231321    -0.01540
C1476       C  0.85972699  0.01279100  0.72284735     0.03440
C1477       C  0.84211752  0.48372810  0.80210190     0.38090
C1478       C  0.90820908  0.02104436  0.69466317     0.38080
C1479       C  0.84340487  0.02481746  0.69672606     0.36500
C1480       C  0.90676547  0.48061144  0.80167695     0.36500
N1481       N  0.83046288  0.03473012  0.67600861    -0.38320
N1482       N  0.91886978  0.47157067  0.82328438    -0.38320
N1483       N  0.92087802  0.02847109  0.67247158    -0.37760
N1484       N  0.82889886  0.47708551  0.82421362    -0.37770
C1485       C  0.49792526  0.34397989  0.75175541    -0.04430
C1486       C  0.51968175  0.35981194  0.76956346    -0.01550
C1487       C  0.52027138  0.39214275  0.76974219     0.03440
C1488       C  0.49901335  0.40897777  0.75240626    -0.04430
C1489       C  0.97691650  0.39337186  0.73516555    -0.01540
C1490       C  0.97632142  0.36107684  0.73484209     0.03440
C1491       C  0.54102827  0.34300407  0.78849551     0.38090
C1492       C  0.95427511  0.41062725  0.71816022     0.38080
C1493       C  0.95372741  0.34575152  0.71641188     0.36500
C1494       C  0.54348312  0.40809734  0.78696820     0.36500
N1495       N  0.93536230  0.33404864  0.70168405    -0.38320
N1496       N  0.56203102  0.42086669  0.80059656    -0.38320
N1497       N  0.93622676  0.42440426  0.70465930    -0.37760
N1498       N  0.55802916  0.32963757  0.80364004    -0.37770
C1499       C  0.00173375  0.09319580  0.74724679    -0.04430
C1500       C  0.97413802  0.10915525  0.74233192    -0.01550
C1501       C  0.97359458  0.14149634  0.74198352     0.03440
C1502       C  0.50050777  0.15840513  0.74856019    -0.04430
C1503       C  0.52814029  0.14190611  0.75390997    -0.01540
C1504       C  0.52886930  0.10966019  0.75176316     0.03440
C1505       C  0.94606553  0.09227722  0.73773277     0.38090
C1506       C  0.55598052  0.15755139  0.76249448     0.38080
C1507       C  0.55800457  0.09359427  0.75239512     0.36500
C1508       C  0.94520494  0.15687045  0.73410643     0.36500
N1509       N  0.58163953  0.08148210  0.75187803    -0.38320
N1510       N  0.92249999  0.16890185  0.72765555    -0.38320
N1511       N  0.57822077  0.16981018  0.76957141    -0.37760
N1512       N  0.92341105  0.07923336  0.73424706    -0.37770
O1513       O  0.49870553  0.95842335  0.27620050    -0.70870
O1514       O  0.00214659  0.54538980  0.27354156    -0.71090
O1515       O  0.95698333  0.00391469  0.27376649    -0.70950
O1516       O  0.54368748  0.49972958  0.27605193    -0.70960
O1517       O  0.54564200  0.00001018  0.22639684    -0.70920
O1518       O  0.95856201  0.50002283  0.22439343    -0.70940
O1519       O  0.50176611  0.54373574  0.22381028    -0.70880
O1520       O  0.00218110  0.95684906  0.22654846    -0.71060
V1521       V  0.00039310  0.00187081  0.27393248     1.35240
V1522       V  0.00206211  0.50025061  0.22623074     1.35170
C1523       C  0.00009554  0.94287308  0.25175794     0.78370
C1524       C  0.00204530  0.55931156  0.24820905     0.78420
C1525       C  0.94275493  0.50192515  0.24883639     0.78290
C1526       C  0.55952759  0.49915863  0.25163199     0.78260
O1527       O  0.97494894  0.70765774  0.25092721    -0.70870
O1528       O  0.97348133  0.79471487  0.25026835    -0.71090
O1529       O  0.97376617  0.75034441  0.20698510    -0.70950
O1530       O  0.97466757  0.75141471  0.29387611    -0.70960
O1531       O  0.52413018  0.75102131  0.29272281    -0.70920
O1532       O  0.52327267  0.75233091  0.20582370    -0.70940
O1533       O  0.52314360  0.79506057  0.25017043    -0.70880
O1534       O  0.52436698  0.70819434  0.24817368    -0.71060
V1535       V  0.97514815  0.75112206  0.25045477     1.35240
V1536       V  0.52278007  0.75163750  0.24926033     1.35170
C1537       C  0.49991164  0.69285874  0.24930581     0.78370
C1538       C  0.49812864  0.80980080  0.25063352     0.78420
C1539       C  0.99841094  0.75085506  0.19141218     0.78290
C1540       C  0.99951774  0.75112056  0.30837311     0.78260
O1541       O  0.74971052  0.97623087  0.29291088    -0.70870
O1542       O  0.75390221  0.97422794  0.20625909    -0.71090
O1543       O  0.79530660  0.97648987  0.25117084    -0.70950
O1544       O  0.70840565  0.97405018  0.24828950    -0.70960
O1545       O  0.70682870  0.52365964  0.25152840    -0.70920
O1546       O  0.79370002  0.52596802  0.24596225    -0.70940
O1547       O  0.74801444  0.52369593  0.20535605    -0.70880
O1548       O  0.75247621  0.52560054  0.29225864    -0.71060
V1549       V  0.75183181  0.97617486  0.24961769     1.35240
V1550       V  0.75028345  0.52384600  0.24877489     1.35170
C1551       C  0.75118368  0.50110212  0.30765328     0.78370
C1552       C  0.75076264  0.49857820  0.19104839     0.78420
C1553       C  0.80927625  0.00163783  0.24851915     0.78290
C1554       C  0.69275864  0.99847605  0.25024433     0.78260
O1555       O  0.72615223  0.95611982  0.99861889    -0.70870
O1556       O  0.72367512  0.54332631  0.50095907    -0.71090
O1557       O  0.72462789  0.00104012  0.45630809    -0.70950
O1558       O  0.72459022  0.49818409  0.04307193    -0.70960
O1559       O  0.77398098  0.00218661  0.04272798    -0.70920
O1560       O  0.77440759  0.49905884  0.45559910    -0.70940
O1561       O  0.77331780  0.54406471  0.99761916    -0.70880
O1562       O  0.77571821  0.95738453  0.50093449    -0.71060
V1563       V  0.72569250  0.99971495  0.99971020     1.35240
V1564       V  0.77341272  0.50068788  0.99919333     1.35170
C1565       C  0.75143542  0.94187283  0.00038614     0.78370
C1566       C  0.74820576  0.55856707  0.99901552     0.78420
C1567       C  0.74948013  0.50015808  0.44119896     0.78290
C1568       C  0.74917747  0.49961319  0.05787787     0.78260
O1569       O  0.50015472  0.72522315  0.45651173    -0.70870
O1570       O  0.00146942  0.72546167  0.04336558    -0.71090
O1571       O  0.95723437  0.72529756  0.50142893    -0.70950
O1572       O  0.54412417  0.72580879  0.99866818    -0.70960
O1573       O  0.54342240  0.77522160  0.49927214    -0.70920
O1574       O  0.95651627  0.77473235  0.00032534    -0.70940
O1575       O  0.49964546  0.77521429  0.04342906    -0.70880
O1576       O  0.99997916  0.77501424  0.45649512    -0.71060
V1577       V  0.00069801  0.72639738  0.49997342     1.35240
V1578       V  0.99995562  0.77409976  0.99992056     1.35170
C1579       C  0.00001424  0.75008134  0.44179131     0.78370
C1580       C  0.00050061  0.75034678  0.05814459     0.78420
C1581       C  0.94179000  0.74992451  0.00128562     0.78290
C1582       C  0.55888061  0.75061622  0.99838151     0.78260
O1583       O  0.74808690  0.79318636  0.02585924    -0.70870
O1584       O  0.74837578  0.70631461  0.02329964    -0.71090
O1585       O  0.79156851  0.74962515  0.02796154    -0.70950
O1586       O  0.70484710  0.74990677  0.02123921    -0.70960
O1587       O  0.70918651  0.75260759  0.47167187    -0.70920
O1588       O  0.79582846  0.74909151  0.47831036    -0.70940
O1589       O  0.75101805  0.70745473  0.47371398    -0.70880
O1590       O  0.75393743  0.79438790  0.47645507    -0.71060
V1591       V  0.74827326  0.74976648  0.02362598     1.35240
V1592       V  0.75244399  0.75089350  0.47599317     1.35170
C1593       C  0.75137546  0.80864225  0.00162795     0.78370
C1594       C  0.74925765  0.69198667  0.99810055     0.78420
C1595       C  0.80838548  0.74912951  0.00419274     0.78290
C1596       C  0.69233626  0.75138157  0.99536901     0.78260
C1597       C  0.90729970  0.74969843  0.00265406    -0.04430
C1598       C  0.89025827  0.77698831  0.00919605    -0.01550
C1599       C  0.85798054  0.77627538  0.01156642     0.03440
C1600       C  0.84215390  0.74888514  0.00626898    -0.04430
C1601       C  0.85865934  0.72159945  0.50102401    -0.01540
C1602       C  0.89089535  0.72194407  0.49845837     0.03440
C1603       C  0.90534752  0.80618600  0.01344271     0.38090
C1604       C  0.84256248  0.69267610  0.50034911     0.38080
C1605       C  0.90657235  0.69352507  0.49052279     0.36500
C1606       C  0.84103865  0.80361691  0.02064929     0.36500
N1607       N  0.91880480  0.67076357  0.48405066    -0.38320
N1608       N  0.82784176  0.82536044  0.02859278    -0.38320
N1609       N  0.83029962  0.66928761  0.50081155    -0.37760
N1610       N  0.91713393  0.82960289  0.01678089    -0.37770
C1611       C  0.59340534  0.75083680  0.99657236    -0.04430
C1612       C  0.60985541  0.77891818  0.99764385    -0.01550
C1613       C  0.64207977  0.77902660  0.99473377     0.03440
C1614       C  0.65858710  0.75134756  0.99315971    -0.04430
C1615       C  0.64278335  0.72351501  0.49097119    -0.01540
C1616       C  0.61046234  0.72307314  0.49258413     0.03440
C1617       C  0.59428846  0.80806862  0.00234448     0.38090
C1618       C  0.65981722  0.69531522  0.48552342     0.38080
C1619       C  0.59535579  0.69368845  0.48989688     0.36500
C1620       C  0.65815660  0.80779869  0.99131601     0.36500
N1621       N  0.58356371  0.67013661  0.48768473    -0.38320
N1622       N  0.67045185  0.83087929  0.98745138    -0.38320
N1623       N  0.67301599  0.67275355  0.48049293    -0.37760
N1624       N  0.58217199  0.83143531  0.00631063    -0.37770
C1625       C  0.75258892  0.90778274  0.00212674    -0.04430
C1626       C  0.73083897  0.89179253  0.02020622    -0.01550
C1627       C  0.73160375  0.85949359  0.02149744     0.03440
C1628       C  0.75238742  0.84271545  0.00266027    -0.04430
C1629       C  0.77446993  0.85870684  0.48502430    -0.01540
C1630       C  0.77567236  0.89096269  0.48620771     0.03440
C1631       C  0.70832656  0.90852679  0.03857543     0.38090
C1632       C  0.79669873  0.84204293  0.46623736     0.38080
C1633       C  0.80093087  0.90657702  0.47110900     0.36500
C1634       C  0.71058954  0.84369280  0.04199688     0.36500
N1635       N  0.82124655  0.91891499  0.45925497    -0.38320
N1636       N  0.69386656  0.83116188  0.05842368    -0.38320
N1637       N  0.81442495  0.82881928  0.45122821    -0.37760
N1638       N  0.69032902  0.92184516  0.05317031    -0.37770
C1639       C  0.74810329  0.65782797  0.99737810    -0.04430
C1640       C  0.72971942  0.64186954  0.01894551    -0.01550
C1641       C  0.72907722  0.60957512  0.01885739     0.03440
C1642       C  0.74777190  0.59267646  0.99816307    -0.04430
C1643       C  0.76634014  0.60856871  0.47673754    -0.01540
C1644       C  0.76557197  0.64087917  0.47554260     0.03440
C1645       C  0.71042371  0.65855525  0.04073101     0.38090
C1646       C  0.78609800  0.59175413  0.45549260     0.38080
C1647       C  0.78333040  0.65646561  0.45202236     0.36500
C1648       C  0.70970907  0.59393315  0.04091734     0.36500
N1649       N  0.79750979  0.66880448  0.43322896    -0.38320
N1650       N  0.69393569  0.58203907  0.05865621    -0.37960
N1651       N  0.80193991  0.57841009  0.43860677    -0.37760
N1652       N  0.69494211  0.67179070  0.05802891    -0.37770
C1653       C  0.75113476  0.50120061  0.34210989    -0.04430
C1654       C  0.74404817  0.52828238  0.35908349    -0.01550
C1655       C  0.74258577  0.52760783  0.39141788     0.03440
C1656       C  0.74935966  0.50043569  0.40731301    -0.04430
C1657       C  0.75576690  0.97341959  0.39081134    -0.01540
C1658       C  0.75715778  0.97372511  0.35855385     0.03440
C1659       C  0.73800156  0.55710586  0.34378467     0.38090
C1660       C  0.75864752  0.94457896  0.40689361     0.38080
C1661       C  0.76545095  0.94544948  0.34281197     0.36500
C1662       C  0.73294005  0.55473369  0.40834240     0.36500
N1663       N  0.77220175  0.92283131  0.33050574    -0.38320
N1664       N  0.72463233  0.57631689  0.42154571    -0.38320
N1665       N  0.76007852  0.92107573  0.41892196    -0.37760
N1666       N  0.73334256  0.58028895  0.33187087    -0.37770
C1667       C  0.74893815  0.49802819  0.09215649    -0.04430
C1668       C  0.77438656  0.98554886  0.10786501    -0.01550
C1669       C  0.77446728  0.98473820  0.14016824     0.03440
C1670       C  0.74990741  0.49766403  0.15718659    -0.04430
C1671       C  0.72406842  0.50904154  0.14184117    -0.01540
C1672       C  0.72307540  0.50827905  0.10958076     0.03440
C1673       C  0.80008863  0.97213420  0.09105188     0.38090
C1674       C  0.69783972  0.52045301  0.15937078     0.38080
C1675       C  0.69483491  0.51716732  0.09483099     0.36500
C1676       C  0.79992101  0.97052793  0.15591441     0.36500
N1677       N  0.67187670  0.52352222  0.08346858    -0.38320
N1678       N  0.82008434  0.95895229  0.16844637    -0.38320
N1679       N  0.67691431  0.52953594  0.17328822    -0.37760
N1680       N  0.82064256  0.96138360  0.07778161    -0.37770
C1681       C  0.99970027  0.75083548  0.34284811    -0.04430
C1682       C  0.52669495  0.74270504  0.35898464    -0.01550
C1683       C  0.52667131  0.74254220  0.39131013     0.03440
C1684       C  0.99985802  0.75006470  0.40798546    -0.04430
C1685       C  0.97296189  0.75791838  0.39244575    -0.01540
C1686       C  0.97277976  0.75855384  0.36014582     0.03440
C1687       C  0.55470185  0.73396342  0.34282455     0.38090
C1688       C  0.94517545  0.76490092  0.40987523     0.38080
C1689       C  0.94468732  0.76772149  0.34523030     0.36500
C1690       C  0.55452957  0.73511922  0.40757545     0.36500
N1691       N  0.92217129  0.77500105  0.33353036    -0.38320
N1692       N  0.57676790  0.72931647  0.42050184    -0.38320
N1693       N  0.92302571  0.77033351  0.42377654    -0.37760
N1694       N  0.57717870  0.72700280  0.33018296    -0.37770
C1695       C  0.99992080  0.75025144  0.09201800    -0.04430
C1696       C  0.52466644  0.73778482  0.10826308    -0.01550
C1697       C  0.52400282  0.73747707  0.14058316     0.03440
C1698       C  0.99837254  0.74968515  0.15709209    -0.04430
C1699       C  0.97288285  0.76067141  0.14039720    -0.01540
C1700       C  0.97401381  0.76150624  0.10811521     0.03440
C1701       C  0.55113189  0.72566185  0.09161867     0.38090
C1702       C  0.94488298  0.77041946  0.15592039     0.38080
C1703       C  0.94793357  0.77312076  0.09138058     0.36500
C1704       C  0.54923896  0.72311953  0.15653015     0.36500
N1705       N  0.92698752  0.78238632  0.07830252    -0.38320
N1706       N  0.56932713  0.71153135  0.16917243    -0.38320
N1707       N  0.92205871  0.77756461  0.16778021    -0.37760
N1708       N  0.57219048  0.71601320  0.07829693    -0.37770
C1709       C  0.65869007  0.49766237  0.25130647    -0.04430
C1710       C  0.64224559  0.51548641  0.27313505    -0.01550
C1711       C  0.60995611  0.51475346  0.27432745     0.03440
C1712       C  0.59361585  0.49754663  0.25252403    -0.04430
C1713       C  0.61007834  0.97887799  0.23138220    -0.01540
C1714       C  0.64242583  0.97883844  0.23085900     0.03440
C1715       C  0.65845722  0.53433985  0.29488771     0.38090
C1716       C  0.59378764  0.95848219  0.21108997     0.38080
C1717       C  0.65886625  0.96002422  0.20856033     0.36500
C1718       C  0.59376091  0.53200261  0.29804861     0.36500
N1719       N  0.67193864  0.94498994  0.19078094    -0.38320
N1720       N  0.58098540  0.54576389  0.31703626    -0.38320
N1721       N  0.58075154  0.94207388  0.19510233    -0.37760
N1722       N  0.67112158  0.54961080  0.31221687    -0.37770
C1723       C  0.84318552  0.50247048  0.24870841    -0.04430
C1724       C  0.85907001  0.99240589  0.27468123    -0.01550
C1725       C  0.89138135  0.99199453  0.27469697     0.03440
C1726       C  0.90836726  0.50173096  0.24849659    -0.04430
C1727       C  0.89207780  0.51163817  0.22231320    -0.01540
C1728       C  0.85972699  0.51279100  0.22284735     0.03440
C1729       C  0.84211753  0.98372809  0.30210190     0.38090
C1730       C  0.90820908  0.52104437  0.19466316     0.38080
C1731       C  0.84340487  0.52481747  0.19672607     0.36500
C1732       C  0.90676548  0.98061144  0.30167694     0.36500
N1733       N  0.83046288  0.53473014  0.17600862    -0.38320
N1734       N  0.91886980  0.97157067  0.32328437    -0.38320
N1735       N  0.92087802  0.52847110  0.17247157    -0.37760
N1736       N  0.82889886  0.97708548  0.32421361    -0.37770
C1737       C  0.49792527  0.84397990  0.25175540    -0.04430
C1738       C  0.51968174  0.85981195  0.26956346    -0.01550
C1739       C  0.52027137  0.89214276  0.26974219     0.03440
C1740       C  0.49901336  0.90897779  0.25240625    -0.04430
C1741       C  0.97691652  0.89337187  0.23516552    -0.01540
C1742       C  0.97632144  0.86107685  0.23484206     0.03440
C1743       C  0.54102825  0.84300408  0.28849553     0.38090
C1744       C  0.95427514  0.91062726  0.21816018     0.38080
C1745       C  0.95372745  0.84575153  0.21641184     0.36500
C1746       C  0.54348310  0.90809735  0.28696822     0.36500
N1747       N  0.93536236  0.83404864  0.20168398    -0.38320
N1748       N  0.56203100  0.92086670  0.30059659    -0.38320
N1749       N  0.93622680  0.92440426  0.20465924    -0.37760
N1750       N  0.55802913  0.82963758  0.30364007    -0.37770
C1751       C  0.00173375  0.59319581  0.24724679    -0.04430
C1752       C  0.97413802  0.60915526  0.24233191    -0.01550
C1753       C  0.97359458  0.64149636  0.24198352     0.03440
C1754       C  0.50050776  0.65840515  0.24856020    -0.04430
C1755       C  0.52814029  0.64190613  0.25390998    -0.01540
C1756       C  0.52886930  0.60966021  0.25176317     0.03440
C1757       C  0.94606554  0.59227724  0.23773274     0.38090
C1758       C  0.55598051  0.65755141  0.26249450     0.38080
C1759       C  0.55800456  0.59359429  0.25239514     0.36500
C1760       C  0.94520495  0.65687046  0.23410642     0.36500
N1761       N  0.58163953  0.58148212  0.25187805    -0.38320
N1762       N  0.92249999  0.66890187  0.22765553    -0.38320
N1763       N  0.57822076  0.66981020  0.26957143    -0.37760
N1764       N  0.92341105  0.57923337  0.23424703    -0.37770
O1765       O  0.49870552  0.95842334  0.77620051    -0.70870
O1766       O  0.00214658  0.54538979  0.77354157    -0.71090
O1767       O  0.95698333  0.00391468  0.77376649    -0.70950
O1768       O  0.54368747  0.49972956  0.77605193    -0.70960
O1769       O  0.54564200  0.00001016  0.72639684    -0.70920
O1770       O  0.95856201  0.50002282  0.72439344    -0.70940
O1771       O  0.50176611  0.54373572  0.72381029    -0.70880
O1772       O  0.00218110  0.95684905  0.72654847    -0.71060
V1773       V  0.00039310  0.00187080  0.77393249     1.35240
V1774       V  0.00206210  0.50025059  0.72623075     1.35170
C1775       C  0.00009553  0.94287307  0.75175796     0.78370
C1776       C  0.00204529  0.55931155  0.74820905     0.78420
C1777       C  0.94275493  0.50192514  0.74883639     0.78290
C1778       C  0.55952759  0.49915862  0.75163200     0.78260
O1779       O  0.97494894  0.70765772  0.75092720    -0.70870
O1780       O  0.97348132  0.79471486  0.75026836    -0.71090
O1781       O  0.97376616  0.75034440  0.70698510    -0.70950
O1782       O  0.97466756  0.75141469  0.79387611    -0.70960
O1783       O  0.52413019  0.75102130  0.79272281    -0.70920
O1784       O  0.52327269  0.75233090  0.70582370    -0.70940
O1785       O  0.52314361  0.79506056  0.75017043    -0.70880
O1786       O  0.52436699  0.70819433  0.74817367    -0.71060
V1787       V  0.97514815  0.75112205  0.75045477     1.35240
V1788       V  0.52278008  0.75163748  0.74926033     1.35170
C1789       C  0.49991165  0.69285873  0.74930580     0.78370
C1790       C  0.49812864  0.80980078  0.75063353     0.78420
C1791       C  0.99841093  0.75085505  0.69141218     0.78290
C1792       C  0.99951773  0.75112055  0.80837311     0.78260
O1793       O  0.74971052  0.97623088  0.79291088    -0.70870
O1794       O  0.75390220  0.97422794  0.70625909    -0.71090
O1795       O  0.79530659  0.97648987  0.75117084    -0.70950
O1796       O  0.70840564  0.97405019  0.74828950    -0.70960
O1797       O  0.70682869  0.52365965  0.75152839    -0.70920
O1798       O  0.79370002  0.52596802  0.74596224    -0.70940
O1799       O  0.74801443  0.52369593  0.70535604    -0.70880
O1800       O  0.75247621  0.52560055  0.79225864    -0.71060
V1801       V  0.75183180  0.97617486  0.74961770     1.35240
V1802       V  0.75028345  0.52384600  0.74877489     1.35170
C1803       C  0.75118368  0.50110213  0.80765328     0.78370
C1804       C  0.75076263  0.49857820  0.69104839     0.78420
C1805       C  0.80927624  0.00163783  0.74851914     0.78290
C1806       C  0.69275863  0.99847606  0.75024433     0.78260
O1807       O  0.72615219  0.95611981  0.49861889    -0.70870
O1808       O  0.72367512  0.54332633  0.00095907    -0.71090
O1809       O  0.72462792  0.00104013  0.95630809    -0.70950
O1810       O  0.72459020  0.49818407  0.54307193    -0.70960
O1811       O  0.77398095  0.00218658  0.54272798    -0.70920
O1812       O  0.77440760  0.49905886  0.95559910    -0.70940
O1813       O  0.77331780  0.54406468  0.49761916    -0.70880
O1814       O  0.77571825  0.95738456  0.00093449    -0.71060
V1815       V  0.72569247  0.99971493  0.49971020     1.35240
V1816       V  0.77341271  0.50068785  0.49919333     1.35170
C1817       C  0.75143537  0.94187281  0.50038613     0.78370
C1818       C  0.74820576  0.55856705  0.49901552     0.78420
C1819       C  0.74948014  0.50015810  0.94119896     0.78290
C1820       C  0.74917746  0.49961316  0.55787787     0.78260
O1821       O  0.50015474  0.72522313  0.95651173    -0.70870
O1822       O  0.00146944  0.72546167  0.54336558    -0.71090
O1823       O  0.95723436  0.72529754  0.00142892    -0.70950
O1824       O  0.54412418  0.72580880  0.49866815    -0.70960
O1825       O  0.54342239  0.77522159  0.99927213    -0.70920
O1826       O  0.95651627  0.77473237  0.50032534    -0.70940
O1827       O  0.49964546  0.77521429  0.54342907    -0.70880
O1828       O  0.99997915  0.77501422  0.95649512    -0.71060
V1829       V  0.00069800  0.72639737  0.99997342     1.35240
V1830       V  0.99995563  0.77409977  0.49992057     1.35170
C1831       C  0.00001424  0.75008132  0.94179131     0.78370
C1832       C  0.00050061  0.75034678  0.55814459     0.78420
C1833       C  0.94179000  0.74992452  0.50128563     0.78290
C1834       C  0.55888061  0.75061623  0.49838150     0.78260
O1835       O  0.74808687  0.79318635  0.52585922    -0.70870
O1836       O  0.74837581  0.70631459  0.52329965    -0.71090
O1837       O  0.79156851  0.74962516  0.52796154    -0.70950
O1838       O  0.70484710  0.74990673  0.52123920    -0.70960
O1839       O  0.70918650  0.75260761  0.97167188    -0.70920
O1840       O  0.79582845  0.74909153  0.97831036    -0.70940
O1841       O  0.75101804  0.70745476  0.97371397    -0.70880
O1842       O  0.75393742  0.79438793  0.97645508    -0.71060
V1843       V  0.74827326  0.74976646  0.52362597     1.35240
V1844       V  0.75244398  0.75089353  0.97599317     1.35170
C1845       C  0.75137545  0.80864223  0.50162793     0.78370
C1846       C  0.74925767  0.69198664  0.49810056     0.78420
C1847       C  0.80838549  0.74912951  0.50419274     0.78290
C1848       C  0.69233627  0.75138153  0.49536899     0.78260
C1849       C  0.90729971  0.74969844  0.50265407    -0.04430
C1850       C  0.89025827  0.77698832  0.50919606    -0.01550
C1851       C  0.85798054  0.77627538  0.51156643     0.03440
C1852       C  0.84215390  0.74888514  0.50626899    -0.04430
C1853       C  0.85865934  0.72159944  0.00102401    -0.01540
C1854       C  0.89089534  0.72194407  0.99845836     0.03440
C1855       C  0.90534751  0.80618601  0.51344271     0.38090
C1856       C  0.84256247  0.69267609  0.00034910     0.38080
C1857       C  0.90657234  0.69352506  0.99052278     0.36500
C1858       C  0.84103865  0.80361691  0.52064930     0.36500
N1859       N  0.91880479  0.67076356  0.98405064    -0.38320
N1860       N  0.82784176  0.82536044  0.52859279    -0.38320
N1861       N  0.83029961  0.66928760  0.00081154    -0.37760
N1862       N  0.91713393  0.82960290  0.51678089    -0.37770
C1863       C  0.59340535  0.75083679  0.49657234    -0.04430
C1864       C  0.60985542  0.77891818  0.49764373    -0.01550
C1865       C  0.64207978  0.77902658  0.49473366     0.03440
C1866       C  0.65858711  0.75134753  0.49315969    -0.04430
C1867       C  0.64278335  0.72351504  0.99097115    -0.01540
C1868       C  0.61046234  0.72307315  0.99258409     0.03440
C1869       C  0.59428848  0.80806864  0.50234424     0.38090
C1870       C  0.65981723  0.69531527  0.98552332     0.38080
C1871       C  0.59535579  0.69368847  0.98989674     0.36500
C1872       C  0.65815663  0.80779865  0.49131585     0.36500
N1873       N  0.58356371  0.67013664  0.98768453    -0.38320
N1874       N  0.67045190  0.83087924  0.48745117    -0.38320
N1875       N  0.67301601  0.67275361  0.98049278    -0.37760
N1876       N  0.58217202  0.83143535  0.50631030    -0.37770
C1877       C  0.75258887  0.90778272  0.50212672    -0.04430
C1878       C  0.73083891  0.89179250  0.52020618    -0.01550
C1879       C  0.73160370  0.85949357  0.52149740     0.03440
C1880       C  0.75238738  0.84271543  0.50266025    -0.04430
C1881       C  0.77446996  0.85870685  0.98502431    -0.01540
C1882       C  0.77567240  0.89096270  0.98620772     0.03440
C1883       C  0.70832649  0.90852676  0.53857538     0.38090
C1884       C  0.79669874  0.84204294  0.96623736     0.38080
C1885       C  0.80093091  0.90657703  0.97110901     0.36500
C1886       C  0.71058945  0.84369276  0.54199680     0.36500
N1887       N  0.82124659  0.91891500  0.95925497    -0.38320
N1888       N  0.69386646  0.83116184  0.55842358    -0.38320
N1889       N  0.81442495  0.82881928  0.95122820    -0.37760
N1890       N  0.69032894  0.92184512  0.55317026    -0.37770
C1891       C  0.74810332  0.65782794  0.49737812    -0.04430
C1892       C  0.72971946  0.64186951  0.51894554    -0.01550
C1893       C  0.72907726  0.60957510  0.51885742     0.03440
C1894       C  0.74777191  0.59267644  0.49816308    -0.04430
C1895       C  0.76634013  0.60856874  0.97673754    -0.01540
C1896       C  0.76557196  0.64087920  0.97554259     0.03440
C1897       C  0.71042378  0.65855523  0.54073107     0.38090
C1898       C  0.78609800  0.59175416  0.95549260     0.38080
C1899       C  0.78333039  0.65646563  0.95202236     0.36500
C1900       C  0.70970912  0.59393313  0.54091738     0.36500
N1901       N  0.79750979  0.66880451  0.93322896    -0.38320
N1902       N  0.69393575  0.58203905  0.55865627    -0.37960
N1903       N  0.80193992  0.57841011  0.93860678    -0.37760
N1904       N  0.69494219  0.67179067  0.55802898    -0.37770
C1905       C  0.75113476  0.50120063  0.84210989    -0.04430
C1906       C  0.74404817  0.52828239  0.85908349    -0.01550
C1907       C  0.74258577  0.52760784  0.89141787     0.03440
C1908       C  0.74935967  0.50043571  0.90731301    -0.04430
C1909       C  0.75576693  0.97341961  0.89081134    -0.01540
C1910       C  0.75715780  0.97372513  0.85855385     0.03440
C1911       C  0.73800154  0.55710587  0.84378467     0.38090
C1912       C  0.75864756  0.94457898  0.90689361     0.38080
C1913       C  0.76545098  0.94544950  0.84281196     0.36500
C1914       C  0.73294005  0.55473371  0.90834240     0.36500
N1915       N  0.77220178  0.92283133  0.83050574    -0.38320
N1916       N  0.72463233  0.57631691  0.92154571    -0.38320
N1917       N  0.76007858  0.92107575  0.91892196    -0.37760
N1918       N  0.73334254  0.58028895  0.83187087    -0.37770
C1919       C  0.74893814  0.49802817  0.59215650    -0.04430
C1920       C  0.77438652  0.98554882  0.60786501    -0.01550
C1921       C  0.77446725  0.98473818  0.64016824     0.03440
C1922       C  0.74990740  0.49766402  0.65718659    -0.04430
C1923       C  0.72406841  0.50904153  0.64184117    -0.01540
C1924       C  0.72307539  0.50827904  0.60958076     0.03440
C1925       C  0.80008858  0.97213414  0.59105188     0.38090
C1926       C  0.69783971  0.52045301  0.65937078     0.38080
C1927       C  0.69483490  0.51716730  0.59483099     0.36500
C1928       C  0.79992098  0.97052789  0.65591441     0.36500
N1929       N  0.67187669  0.52352220  0.58346858    -0.38320
N1930       N  0.82008431  0.95895226  0.66844637    -0.38320
N1931       N  0.67691431  0.52953595  0.67328822    -0.37760
N1932       N  0.82064250  0.96138352  0.57778160    -0.37770
C1933       C  0.99970026  0.75083546  0.84284811    -0.04430
C1934       C  0.52669496  0.74270502  0.85898464    -0.01550
C1935       C  0.52667132  0.74254218  0.89131013     0.03440
C1936       C  0.99985802  0.75006467  0.90798546    -0.04430
C1937       C  0.97296188  0.75791834  0.89244575    -0.01540
C1938       C  0.97277975  0.75855380  0.86014582     0.03440
C1939       C  0.55470186  0.73396342  0.84282455     0.38090
C1940       C  0.94517543  0.76490086  0.90987523     0.38080
C1941       C  0.94468730  0.76772143  0.84523030     0.36500
C1942       C  0.55452958  0.73511922  0.90757545     0.36500
N1943       N  0.92217126  0.77500097  0.83353036    -0.38320
N1944       N  0.57676792  0.72931648  0.92050184    -0.38320
N1945       N  0.92302569  0.77033344  0.92377654    -0.37760
N1946       N  0.57717872  0.72700282  0.83018296    -0.37770
C1947       C  0.99992080  0.75025143  0.59201800    -0.04430
C1948       C  0.52466645  0.73778481  0.60826308    -0.01550
C1949       C  0.52400283  0.73747705  0.64058316     0.03440
C1950       C  0.99837254  0.74968515  0.65709209    -0.04430
C1951       C  0.97288286  0.76067142  0.64039720    -0.01540
C1952       C  0.97401382  0.76150624  0.60811521     0.03440
C1953       C  0.55113189  0.72566183  0.59161867     0.38090
C1954       C  0.94488299  0.77041947  0.65592038     0.38080
C1955       C  0.94793358  0.77312078  0.59138058     0.36500
C1956       C  0.54923896  0.72311950  0.65653016     0.36500
N1957       N  0.92698753  0.78238634  0.57830252    -0.38320
N1958       N  0.56932712  0.71153131  0.66917243    -0.38320
N1959       N  0.92205872  0.77756463  0.66778021    -0.37760
N1960       N  0.57219048  0.71601316  0.57829693    -0.37770
C1961       C  0.65869006  0.49766237  0.75130646    -0.04430
C1962       C  0.64224559  0.51548641  0.77313505    -0.01550
C1963       C  0.60995611  0.51475345  0.77432745     0.03440
C1964       C  0.59361585  0.49754662  0.75252403    -0.04430
C1965       C  0.61007834  0.97887798  0.73138221    -0.01540
C1966       C  0.64242583  0.97883844  0.73085901     0.03440
C1967       C  0.65845721  0.53433986  0.79488771     0.38090
C1968       C  0.59378764  0.95848218  0.71108998     0.38080
C1969       C  0.65886625  0.96002422  0.70856033     0.36500
C1970       C  0.59376090  0.53200260  0.79804861     0.36500
N1971       N  0.67193864  0.94498995  0.69078094    -0.38320
N1972       N  0.58098539  0.54576388  0.81703626    -0.38320
N1973       N  0.58075155  0.94207386  0.69510234    -0.37760
N1974       N  0.67112157  0.54961081  0.81221686    -0.37770
C1975       C  0.84318551  0.50247048  0.74870842    -0.04430
C1976       C  0.85907000  0.99240590  0.77468124    -0.01550
C1977       C  0.89138134  0.99199454  0.77469697     0.03440
C1978       C  0.90836726  0.50173096  0.74849660    -0.04430
C1979       C  0.89207779  0.51163817  0.72231321    -0.01540
C1980       C  0.85972699  0.51279100  0.72284736     0.03440
C1981       C  0.84211752  0.98372812  0.80210191     0.38090
C1982       C  0.90820908  0.52104437  0.69466317     0.38080
C1983       C  0.84340487  0.52481746  0.69672607     0.36500
C1984       C  0.90676547  0.98061146  0.80167696     0.36500
N1985       N  0.83046288  0.53473013  0.67600861    -0.38320
N1986       N  0.91886978  0.97157069  0.82328439    -0.38320
N1987       N  0.92087802  0.52847110  0.67247158    -0.37760
N1988       N  0.82889885  0.97708553  0.82421363    -0.37770
C1989       C  0.49792527  0.84397989  0.75175541    -0.04430
C1990       C  0.51968176  0.85981194  0.76956346    -0.01550
C1991       C  0.52027138  0.89214275  0.76974219     0.03440
C1992       C  0.49901335  0.90897777  0.75240626    -0.04430
C1993       C  0.97691650  0.89337186  0.73516554    -0.01540
C1994       C  0.97632142  0.86107684  0.73484208     0.03440
C1995       C  0.54102827  0.84300407  0.78849551     0.38090
C1996       C  0.95427511  0.91062725  0.71816021     0.38080
C1997       C  0.95372742  0.84575152  0.71641187     0.36500
C1998       C  0.54348312  0.90809734  0.78696820     0.36500
N1999       N  0.93536231  0.83404864  0.70168403    -0.38320
N2000       N  0.56203102  0.92086670  0.80059656    -0.38320
N2001       N  0.93622677  0.92440426  0.70465929    -0.37760
N2002       N  0.55802917  0.82963757  0.80364003    -0.37770
C2003       C  0.00173375  0.59319580  0.74724679    -0.04430
C2004       C  0.97413801  0.60915525  0.74233192    -0.01550
C2005       C  0.97359458  0.64149634  0.74198352     0.03440
C2006       C  0.50050777  0.65840513  0.74856019    -0.04430
C2007       C  0.52814029  0.64190611  0.75390997    -0.01540
C2008       C  0.52886930  0.60966019  0.75176316     0.03440
C2009       C  0.94606553  0.59227722  0.73773277     0.38090
C2010       C  0.55598052  0.65755139  0.76249448     0.38080
C2011       C  0.55800457  0.59359427  0.75239513     0.36500
C2012       C  0.94520494  0.65687045  0.73410643     0.36500
N2013       N  0.58163953  0.58148210  0.75187804    -0.38320
N2014       N  0.92249998  0.66890185  0.72765555    -0.38320
N2015       N  0.57822078  0.66981018  0.76957141    -0.37760
N2016       N  0.92341104  0.57923336  0.73424707    -0.37770
loop_ 
_geom_bond_atom_site_label_1 
_geom_bond_atom_site_label_2 
_geom_bond_distance 
_geom_bond_site_symmetry_2 
_ccdc_geom_bond_type 
O1         V1017   1.902   1_655  S
O1         C1019   1.264   1_655  A
O2          V513   1.902       .  S
O2           C12   1.264       .  A
O3            V9   1.897       .  S
O3          C517   1.265       .  A
O4         V1521   1.896   1_565  S
O4           C14   1.263       .  A
O5         V1522   1.903       .  S
O5          C518   1.267       .  A
O6           V10   1.902       .  S
O6           C13   1.265       .  A
O7         V1018   1.902       .  S
O7         C1020   1.263       .  A
O8          V514   1.895       .  S
O8           C11   1.263       .  A
V9         O1009   1.902       .  S
V9          O506   1.902       .  S
V9         O1516   1.896       .  S
V9          V514   2.085       .  T
V10        O1517   1.903       .  S
V10        O1015   1.902       .  S
V10         O512   1.895   1_545  S
V10         V513   2.085       .  T
C11        O1009   1.264       .  A
C11        C1236   1.481       .  S
C12        O1015   1.263       .  A
C12         C239   1.480       .  S
C13         O507   1.265       .  A
C13         C214   1.502       .  S
C14         O509   1.267   1_565  A
C14         C200   1.491       .  S
O15          V23   1.898       .  S
O15        C1033   1.264       .  A
O16          V23   1.904       .  S
O16        C1034   1.266       .  A
O17          V23   1.901       .  S
O17          C27   1.265       .  A
O18          V23   1.897       .  S
O18          C28   1.264       .  A
O19          V24   1.901       .  S
O19        C1036   1.265   1_455  A
O20          V24   1.898       .  S
O20        C1035   1.265   1_455  A
O21          V24   1.897       .  S
O21          C26   1.264   1_455  A
O22          V24   1.898       .  S
O22          C25   1.265   1_455  A
V23        V1032   2.080       .  T
V24        V1031   2.080   1_455  T
C25        O1023   1.264       .  A
C25         C242   1.505   1_655  S
C26        O1024   1.266       .  A
C26         C225   1.493       .  S
C27        O1028   1.265       .  A
C27         C186   1.500       .  S
C28        O1027   1.265       .  A
C28         C169   1.506       .  S
O29          V37   1.892       .  S
O29         C543   1.264       .  A
O30          V37   1.897       .  S
O30         C544   1.263       .  A
O31          V37   1.901       .  S
O31          C41   1.264       .  A
O32          V37   1.901       .  S
O32          C42   1.265       .  A
O33          V38   1.899       .  S
O33         C546   1.265   1_545  A
O34          V38   1.901       .  S
O34         C545   1.264       .  A
O35          V38   1.901       .  S
O35          C40   1.265   1_545  A
O36          V38   1.905       .  S
O36          C39   1.266       .  A
V37         V542   2.083       .  T
V38         V541   2.083   1_545  T
C39         O533   1.264   1_545  A
C39         C141   1.505       .  S
C40         O534   1.263       .  A
C40         C158   1.481       .  S
C41         O538   1.264       .  A
C41         C715   1.481       .  S
C42         O537   1.265       .  A
C42         C701   1.488       .  S
O43          V51   1.904       .  S
O43          C53   1.267   1_556  A
O44         V807   1.906   1_545  S
O44         C306   1.267       .  A
O45         V303   1.899       .  S
O45         C559   1.262       .  A
O46         V555   1.896   1_554  S
O46          C56   1.263       .  A
O47         V556   1.904   1_554  S
O47         C560   1.267       .  A
O48         V304   1.906   1_565  S
O48          C55   1.266   1_565  A
O49          V52   1.895       .  S
O49          C54   1.263       .  A
O50         V808   1.895       .  S
O50         C305   1.262       .  A
V51         O800   1.906   1_556  S
V51         O297   1.899       .  S
V51         O550   1.896   1_556  S
V51         V556   2.084       .  T
V52         O551   1.904   1_556  S
V52         O300   1.906   1_545  S
V52         O806   1.895   1_546  S
V52         V555   2.084   1_545  T
C53         O302   1.262       .  A
C53         C113   1.491       .  S
C54         O296   1.267   1_556  A
C54         C130   1.490       .  S
C55         O549   1.262       .  A
C55         C144   1.481       .  S
C56         O551   1.267   1_565  A
C56         C155   1.499       .  S
O57        V1073   1.900       .  S
O57        C1075   1.263       .  A
O58         V317   1.897   1_554  S
O58          C68   1.263       .  A
O59          V65   1.899       .  S
O59         C321   1.265       .  A
O60        V1325   1.896       .  S
O60          C70   1.264       .  A
O61        V1326   1.899   1_455  S
O61         C322   1.265       .  A
O62          V66   1.896   1_554  S
O62          C69   1.264       .  A
O63        V1074   1.901   1_554  S
O63        C1076   1.264   1_655  A
O64         V318   1.898       .  S
O64          C67   1.263       .  A
V65        O1065   1.900       .  S
V65         O310   1.897       .  S
V65        O1320   1.896       .  S
V65         V318   2.083       .  T
V66        O1321   1.899       .  S
V66        O1071   1.901   1_556  S
V66         O316   1.898       .  S
V66         V317   2.083       .  T
C67        O1065   1.263       .  A
C67         C172   1.477       .  S
C68        O1071   1.264       .  A
C68         C183   1.480       .  S
C69         O311   1.265       .  A
C69          C85   1.506       .  S
C70         O313   1.265       .  A
C70          C99   1.508       .  S
O71          V79   1.898       .  S
O71          C81   1.264       .  A
O72          V79   1.897       .  S
O72          C82   1.265   1_554  A
O73          V79   1.903       .  S
O73          C83   1.263       .  A
O74          V79   1.900       .  S
O74          C84   1.264   1_554  A
O75          V80   1.902       .  S
O75         C336   1.263       .  A
O76          V80   1.900       .  S
O76         C335   1.264       .  A
O77          V80   1.901       .  S
O77         C334   1.265       .  A
O78          V80   1.901       .  S
O78         C333   1.265       .  A
V79         V332   2.087   1_554  T
V80         V331   2.087       .  T
C81         O330   1.265   1_554  A
C81         C116   1.489       .  S
C82         O329   1.265       .  A
C82         C127   1.493       .  S
C83         O328   1.264   1_554  A
C83          C88   1.478       .  S
C84         O327   1.263       .  A
C84         C102   1.478       .  S
C85          C86   1.427       .  A
C85         C342   1.425   1_554  A
C86          C87   1.412       .  A
C86          C91   1.452       .  S
C87          C88   1.406       .  A
C87          C94   1.451       .  S
C88         C341   1.405       .  A
C89          C90   1.411       .  A
C89         C340   1.405       .  A
C89          C92   1.450       .  S
C90         C337   1.425       .  A
C90          C93   1.452       .  S
C91          N98   1.158       .  T
C92          N97   1.156       .  T
C93          N95   1.158       .  T
C94          N96   1.157       .  T
C99         C100   1.426       .  A
C99         C356   1.427       .  A
C100        C101   1.411       .  A
C100        C105   1.452   1_556  S
C101        C102   1.404       .  A
C101        C108   1.450       .  S
C102        C355   1.405       .  A
C103        C104   1.412       .  A
C103        C354   1.405       .  A
C103        C106   1.451       .  S
C104        C351   1.427       .  A
C104        C107   1.452       .  S
C105        N112   1.158       .  T
C106        N111   1.157       .  T
C107        N109   1.158       .  T
C108        N110   1.157       .  T
C113        C114   1.415       .  A
C113        C370   1.416   1_554  A
C114        C115   1.412       .  A
C114        C119   1.452       .  S
C115        C116   1.415       .  A
C115        C122   1.452       .  S
C116        C369   1.415   1_554  A
C117        C118   1.411       .  A
C117        C368   1.415       .  A
C117        C120   1.452       .  S
C118        C365   1.416       .  A
C118        C121   1.452       .  S
C119        N126   1.157       .  T
C120        N125   1.157       .  T
C121        N123   1.157       .  T
C122        N124   1.157       .  T
C127        C128   1.417   1_556  A
C127        C384   1.417       .  A
C128        C129   1.411       .  A
C128        C133   1.453       .  S
C129        C130   1.412   1_554  A
C129        C136   1.448       .  S
C130        C383   1.416       .  A
C131        C132   1.412       .  A
C131        C382   1.416       .  A
C131        C134   1.452       .  S
C132        C379   1.417       .  A
C132        C135   1.452       .  S
C133        N140   1.157       .  T
C134        N139   1.157       .  T
C135        N137   1.157       .  T
C136        N138   1.156       .  T
C141        C142   1.424       .  A
C141        C650   1.425   1_545  A
C142        C143   1.414       .  A
C142        C147   1.451       .  S
C143        C144   1.408       .  A
C143        C150   1.451       .  S
C144        C649   1.405   1_545  A
C145        C146   1.410       .  A
C145        C648   1.405       .  A
C145        C148   1.449       .  S
C146        C645   1.425       .  A
C146        C149   1.453       .  S
C147        N154   1.158       .  T
C148        N153   1.156       .  T
C149        N151   1.158       .  T
C150        N152   1.157       .  T
C155        C160   1.422   1_565  A
C155        C660   1.421       .  A
C156        C157   1.412       .  A
C156        C659   1.421       .  A
C156        C161   1.451       .  S
C157        C662   1.410       .  A
C157        C164   1.452       .  S
C158        C159   1.409   1_565  A
C158        C661   1.410       .  A
C159        C160   1.411       .  A
C159        C162   1.453       .  S
C160        C163   1.451       .  S
C161        N168   1.157       .  T
C162        N167   1.157       .  T
C163        N165   1.157       .  T
C164        N166   1.158       .  T
C169        C174   1.426       .  A
C169       C1178   1.426       .  A
C170        C171   1.412       .  A
C170       C1177   1.426   1_455  A
C170        C175   1.451       .  S
C171       C1180   1.406   1_455  A
C171        C178   1.453       .  S
C172        C173   1.406       .  A
C172       C1179   1.406       .  A
C173        C174   1.412       .  A
C173        C176   1.453       .  S
C174        C177   1.452       .  S
C175        N182   1.157       .  T
C176        N181   1.157       .  T
C177        N179   1.158       .  T
C178        N180   1.157       .  T
C183        C188   1.408       .  A
C183       C1192   1.409       .  A
C184        C185   1.412       .  A
C184       C1191   1.409   1_455  A
C184        C189   1.452       .  S
C185       C1194   1.422   1_455  A
C185        C192   1.452       .  S
C186        C187   1.421       .  A
C186       C1193   1.422       .  A
C187        C188   1.411       .  A
C187        C190   1.450       .  S
C188        C191   1.452       .  S
C189        N196   1.157       .  T
C190        N195   1.157       .  T
C191        N193   1.157       .  T
C192        N194   1.158       .  T
C197        C546   1.488       .  S
C197        C198   1.414   1_565  A
C197        C706   1.414       .  A
C198        C199   1.411       .  A
C198        C203   1.451       .  S
C199        C200   1.416   1_545  A
C199        C206   1.452       .  S
C200        C705   1.415       .  A
C201        C202   1.412       .  A
C201        C704   1.415       .  A
C201        C204   1.452       .  S
C202        C701   1.414       .  A
C202        C205   1.451       .  S
C203        N210   1.157       .  T
C204        N209   1.158       .  T
C205        N207   1.157       .  T
C206        N208   1.157       .  T
C211        C545   1.481       .  S
C211        C216   1.409       .  A
C211        C716   1.408   1_545  A
C212        C213   1.411       .  A
C212        C715   1.408       .  A
C212        C217   1.452       .  S
C213        C718   1.422       .  A
C213        C220   1.452       .  S
C214        C215   1.423       .  A
C214        C717   1.422   1_545  A
C215        C216   1.413       .  A
C215        C218   1.451       .  S
C216        C219   1.452       .  S
C217        N224   1.157       .  T
C218        N223   1.157       .  T
C219        N221   1.157       .  T
C220        N222   1.158       .  T
C225        C226   1.419   1_655  A
C225       C1238   1.417       .  A
C226        C227   1.412       .  A
C226        C231   1.452       .  S
C227        C228   1.411   1_455  A
C227        C234   1.452       .  S
C228       C1019   1.481   1_655  S
C228       C1237   1.411       .  A
C229        C230   1.411       .  A
C229       C1236   1.411       .  A
C229        C232   1.453       .  S
C230       C1233   1.417       .  A
C230        C233   1.449       .  S
C231        N238   1.158       .  T
C232        N237   1.158       .  T
C233        N235   1.156       .  T
C234        N236   1.158       .  T
C239        C240   1.407       .  A
C239       C1252   1.406       .  A
C240        C241   1.412       .  A
C240        C245   1.451       .  S
C241       C1250   1.424       .  A
C241        C248   1.452       .  S
C242        C243   1.424       .  A
C242       C1249   1.424   1_455  A
C243        C244   1.411       .  A
C243        C246   1.452       .  S
C244       C1247   1.406       .  A
C244        C247   1.449       .  S
C245        N252   1.157       .  T
C246        N251   1.158       .  T
C247        N249   1.156       .  T
C248        N250   1.158       .  T
O253       V1269   1.902   1_655  S
O253       C1271   1.264   1_655  A
O254        V765   1.902       .  S
O254        C264   1.264       .  A
O255        V261   1.897       .  S
O255        C769   1.265       .  A
O256       V1773   1.896   1_565  S
O256        C266   1.263       .  A
O257       V1774   1.903       .  S
O257        C770   1.267       .  A
O258        V262   1.902       .  S
O258        C265   1.265       .  A
O259       V1270   1.902       .  S
O259       C1272   1.263       .  A
O260        V766   1.895       .  S
O260        C263   1.263       .  A
V261       O1261   1.902       .  S
V261        O758   1.902       .  S
V261       O1768   1.896       .  S
V261        V766   2.085       .  T
V262       O1769   1.903       .  S
V262       O1267   1.902       .  S
V262        O764   1.895   1_545  S
V262        V765   2.085       .  T
C263       O1261   1.264       .  A
C263       C1488   1.481       .  S
C264       O1267   1.263       .  A
C264        C491   1.480       .  S
C265        O759   1.265       .  A
C265        C466   1.502       .  S
C266        O761   1.267   1_565  A
C266        C452   1.491       .  S
O267        V275   1.898       .  S
O267       C1285   1.264       .  A
O268        V275   1.904       .  S
O268       C1286   1.266       .  A
O269        V275   1.901       .  S
O269        C279   1.265       .  A
O270        V275   1.897       .  S
O270        C280   1.264       .  A
O271        V276   1.901       .  S
O271       C1288   1.265   1_455  A
O272        V276   1.898       .  S
O272       C1287   1.265   1_455  A
O273        V276   1.897       .  S
O273        C278   1.264   1_455  A
O274        V276   1.898       .  S
O274        C277   1.265   1_455  A
V275       V1284   2.080       .  T
V276       V1283   2.080   1_455  T
C277       O1275   1.264       .  A
C277        C494   1.505   1_655  S
C278       O1276   1.266       .  A
C278        C477   1.493       .  S
C279       O1280   1.265       .  A
C279        C438   1.500       .  S
C280       O1279   1.265       .  A
C280        C421   1.506       .  S
O281        V289   1.892       .  S
O281        C795   1.264       .  A
O282        V289   1.897       .  S
O282        C796   1.263       .  A
O283        V289   1.901       .  S
O283        C293   1.264       .  A
O284        V289   1.901       .  S
O284        C294   1.265       .  A
O285        V290   1.899       .  S
O285        C798   1.265   1_545  A
O286        V290   1.901       .  S
O286        C797   1.264       .  A
O287        V290   1.901       .  S
O287        C292   1.265   1_545  A
O288        V290   1.905       .  S
O288        C291   1.266       .  A
V289        V794   2.083       .  T
V290        V793   2.083   1_545  T
C291        O785   1.264   1_545  A
C291        C393   1.505       .  S
C292        O786   1.263       .  A
C292        C410   1.481       .  S
C293        O790   1.264       .  A
C293        C967   1.481       .  S
C294        O789   1.265       .  A
C294        C953   1.488       .  S
O295        V303   1.904       .  S
O295        C305   1.267       .  A
O296        V555   1.906   1_544  S
O297        C811   1.262       .  A
O298        V807   1.896       .  S
O298        C308   1.263       .  A
O299        V808   1.904       .  S
O299        C812   1.267       .  A
O300        C307   1.266   1_565  A
O301        V304   1.895       .  S
O301        C306   1.263       .  A
O302        V556   1.895   1_554  S
V303        O548   1.906       .  S
V303        O802   1.896       .  S
V303        V808   2.084       .  T
V304        O803   1.904       .  S
V304        O554   1.895   1_545  S
V304        V807   2.084   1_545  T
C305        C365   1.491       .  S
C306        C382   1.490       .  S
C307        O801   1.262       .  A
C307        C396   1.481       .  S
C308        O803   1.267   1_565  A
C308        C407   1.499       .  S
O309       V1325   1.900       .  S
O309       C1327   1.263       .  A
O310        C320   1.263       .  A
O311        V317   1.899   1_554  S
O312       V1073   1.896       .  S
O312        C322   1.264       .  A
O313       V1074   1.899   1_455  S
O314        V318   1.896       .  S
O314        C321   1.264       .  A
O315       V1326   1.901       .  S
O315       C1328   1.264   1_655  A
O316        C319   1.263       .  A
V317       O1317   1.900       .  S
V317       O1068   1.896       .  S
V318       O1069   1.899       .  S
V318       O1323   1.901       .  S
C319       O1317   1.263       .  A
C319        C424   1.477       .  S
C320       O1323   1.264       .  A
C320        C435   1.480       .  S
C321        C337   1.506       .  S
C322        C351   1.508       .  S
O323        V331   1.898       .  S
O323        C333   1.264       .  A
O324        V331   1.897       .  S
O324        C334   1.265       .  A
O325        V331   1.903       .  S
O325        C335   1.263       .  A
O326        V331   1.900       .  S
O326        C336   1.264       .  A
O327        V332   1.902       .  S
O328        V332   1.900       .  S
O329        V332   1.901       .  S
O330        V332   1.901       .  S
C333        C368   1.489       .  S
C334        C379   1.493       .  S
C335        C340   1.478       .  S
C336        C354   1.478       .  S
C337        C338   1.427       .  A
C338        C339   1.412       .  A
C338        C343   1.452       .  S
C339        C340   1.406       .  A
C339        C346   1.451       .  S
C341        C342   1.411   1_554  A
C341        C344   1.450       .  S
C342        C345   1.452       .  S
C343        N350   1.158       .  T
C344        N349   1.156       .  T
C345        N347   1.158       .  T
C346        N348   1.157       .  T
C351        C352   1.426       .  A
C352        C353   1.411       .  A
C352        C357   1.452       .  S
C353        C354   1.404       .  A
C353        C360   1.450       .  S
C355        C356   1.412       .  A
C355        C358   1.451       .  S
C356        C359   1.452       .  S
C357        N364   1.158       .  T
C358        N363   1.157       .  T
C359        N361   1.158       .  T
C360        N362   1.157       .  T
C365        C366   1.415       .  A
C366        C367   1.412       .  A
C366        C371   1.452       .  S
C367        C368   1.415       .  A
C367        C374   1.452       .  S
C369        C370   1.411       .  A
C369        C372   1.452       .  S
C370        C373   1.452       .  S
C371        N378   1.157       .  T
C372        N377   1.157       .  T
C373        N375   1.157       .  T
C374        N376   1.157       .  T
C379        C380   1.417       .  A
C380        C381   1.411       .  A
C380        C385   1.453       .  S
C381        C382   1.412       .  A
C381        C388   1.448       .  S
C383        C384   1.412       .  A
C383        C386   1.452       .  S
C384        C387   1.452       .  S
C385        N392   1.157       .  T
C386        N391   1.157       .  T
C387        N389   1.157       .  T
C388        N390   1.156       .  T
C393        C394   1.424       .  A
C393        C902   1.425   1_545  A
C394        C395   1.414       .  A
C394        C399   1.451       .  S
C395        C396   1.408       .  A
C395        C402   1.451       .  S
C396        C901   1.405   1_545  A
C397        C900   1.405       .  A
C397        C398   1.410       .  A
C397        C400   1.449       .  S
C398        C897   1.425       .  A
C398        C401   1.453       .  S
C399        N406   1.158       .  T
C400        N405   1.156       .  T
C401        N403   1.158       .  T
C402        N404   1.157       .  T
C407        C912   1.421       .  A
C407        C412   1.422   1_565  A
C408        C911   1.421       .  A
C408        C409   1.412       .  A
C408        C413   1.451       .  S
C409        C914   1.410       .  A
C409        C416   1.452       .  S
C410        C913   1.410       .  A
C410        C411   1.409   1_565  A
C411        C412   1.411       .  A
C411        C414   1.453       .  S
C412        C415   1.451       .  S
C413        N420   1.157       .  T
C414        N419   1.157       .  T
C415        N417   1.157       .  T
C416        N418   1.158       .  T
C421       C1430   1.426       .  A
C421        C426   1.426       .  A
C422       C1429   1.426   1_455  A
C422        C423   1.412       .  A
C422        C427   1.451       .  S
C423       C1432   1.406   1_455  A
C423        C430   1.453       .  S
C424       C1431   1.406       .  A
C424        C425   1.406       .  A
C425        C426   1.412       .  A
C425        C428   1.453       .  S
C426        C429   1.452       .  S
C427        N434   1.157       .  T
C428        N433   1.157       .  T
C429        N431   1.158       .  T
C430        N432   1.157       .  T
C435       C1444   1.409       .  A
C435        C440   1.408       .  A
C436       C1443   1.409   1_455  A
C436        C437   1.412       .  A
C436        C441   1.452       .  S
C437       C1446   1.422   1_455  A
C437        C444   1.452       .  S
C438       C1445   1.422       .  A
C438        C439   1.421       .  A
C439        C440   1.411       .  A
C439        C442   1.450       .  S
C440        C443   1.452       .  S
C441        N448   1.157       .  T
C442        N447   1.157       .  T
C443        N445   1.157       .  T
C444        N446   1.158       .  T
C449        C798   1.488       .  S
C449        C450   1.414   1_565  A
C449        C958   1.414       .  A
C450        C451   1.411       .  A
C450        C455   1.451       .  S
C451        C452   1.416   1_545  A
C451        C458   1.452       .  S
C452        C957   1.415       .  A
C453        C956   1.415       .  A
C453        C454   1.412       .  A
C453        C456   1.452       .  S
C454        C953   1.414       .  A
C454        C457   1.451       .  S
C455        N462   1.157       .  T
C456        N461   1.158       .  T
C457        N459   1.157       .  T
C458        N460   1.157       .  T
C463        C797   1.481       .  S
C463        C968   1.408   1_545  A
C463        C468   1.409       .  A
C464        C967   1.408       .  A
C464        C465   1.411       .  A
C464        C469   1.452       .  S
C465        C970   1.422       .  A
C465        C472   1.452       .  S
C466        C969   1.422   1_545  A
C466        C467   1.423       .  A
C467        C468   1.413       .  A
C467        C470   1.451       .  S
C468        C471   1.452       .  S
C469        N476   1.157       .  T
C470        N475   1.157       .  T
C471        N473   1.157       .  T
C472        N474   1.158       .  T
C477        C478   1.419   1_655  A
C477       C1490   1.417       .  A
C478        C479   1.412       .  A
C478        C483   1.452       .  S
C479        C480   1.411   1_455  A
C479        C486   1.452       .  S
C480       C1271   1.481   1_655  S
C480       C1489   1.411       .  A
C481       C1488   1.411       .  A
C481        C482   1.411       .  A
C481        C484   1.453       .  S
C482       C1485   1.417       .  A
C482        C485   1.449       .  S
C483        N490   1.158       .  T
C484        N489   1.158       .  T
C485        N487   1.156       .  T
C486        N488   1.158       .  T
C491        C492   1.407       .  A
C491       C1504   1.406       .  A
C492        C493   1.412       .  A
C492        C497   1.451       .  S
C493       C1502   1.424       .  A
C493        C500   1.452       .  S
C494       C1501   1.424   1_455  A
C494        C495   1.424       .  A
C495        C496   1.411       .  A
C495        C498   1.452       .  S
C496       C1499   1.406       .  A
C496        C499   1.449       .  S
C497        N504   1.157       .  T
C498        N503   1.158       .  T
C499        N501   1.156       .  T
C500        N502   1.158       .  T
O505       V1521   1.902   1_665  S
O505       C1523   1.264   1_655  A
O506        C516   1.264       .  A
O507        V513   1.897       .  S
O508       V1017   1.896       .  S
O508        C518   1.263       .  A
O509       V1018   1.903       .  S
O510        V514   1.902       .  S
O510        C517   1.265       .  A
O511       V1522   1.902       .  S
O511       C1524   1.263       .  A
O512        C515   1.263       .  A
V513       O1513   1.902   1_545  S
V513       O1012   1.896   1_545  S
V514       O1013   1.903       .  S
V514       O1519   1.902       .  S
C515       O1513   1.264       .  A
C515       C1740   1.481       .  S
C516       O1519   1.263       .  A
C516        C743   1.480       .  S
C517        C718   1.502       .  S
C518        C704   1.491       .  S
O519        V527   1.898       .  S
O519       C1537   1.264       .  A
O520        V527   1.904       .  S
O520       C1538   1.266       .  A
O521        V527   1.901       .  S
O521        C531   1.265       .  A
O522        V527   1.897       .  S
O522        C532   1.264       .  A
O523        V528   1.901       .  S
O523       C1540   1.265   1_455  A
O524        V528   1.898       .  S
O524       C1539   1.265   1_455  A
O525        V528   1.897       .  S
O525        C530   1.264   1_455  A
O526        V528   1.898       .  S
O526        C529   1.265   1_455  A
V527       V1536   2.080       .  T
V528       V1535   2.080   1_455  T
C529       O1527   1.264       .  A
C529        C746   1.505   1_655  S
C530       O1528   1.266       .  A
C530        C729   1.493       .  S
C531       O1532   1.265       .  A
C531        C690   1.500       .  S
C532       O1531   1.265       .  A
C532        C673   1.506       .  S
O533        V541   1.892       .  S
O534        V541   1.897       .  S
O535        V541   1.901       .  S
O535        C545   1.264   1_565  A
O536        V541   1.901       .  S
O536        C546   1.265       .  A
O537        V542   1.899       .  S
O538        V542   1.901       .  S
O539        V542   1.901       .  S
O539        C544   1.265       .  A
O540        V542   1.905       .  S
O540        C543   1.266       .  A
C543        C645   1.505       .  S
C544        C662   1.481       .  S
O547        V555   1.904       .  S
O547        C557   1.267   1_556  A
O548        C810   1.267       .  A
O549        V807   1.899   1_545  S
O550        C560   1.263       .  A
O552        V808   1.906       .  S
O552        C559   1.266       .  A
O553        V556   1.895       .  S
O553        C558   1.263       .  A
O554        C809   1.262       .  A
V555        O801   1.899   1_565  S
V556        O804   1.906       .  S
C557        O806   1.262       .  A
C557        C617   1.491       .  S
C558        O800   1.267   1_556  A
C558        C634   1.490       .  S
C559        C648   1.481       .  S
C560        C659   1.499       .  S
O561       V1577   1.900       .  S
O561       C1579   1.263       .  A
O562        V821   1.897   1_554  S
O562        C572   1.263       .  A
O563        V569   1.899       .  S
O563        C825   1.265       .  A
O564       V1829   1.896       .  S
O564        C574   1.264       .  A
O565       V1830   1.899   1_455  S
O565        C826   1.265       .  A
O566        V570   1.896   1_554  S
O566        C573   1.264       .  A
O567       V1578   1.901   1_554  S
O567       C1580   1.264   1_655  A
O568        V822   1.898       .  S
O568        C571   1.263       .  A
V569       O1569   1.900       .  S
V569        O814   1.897       .  S
V569       O1824   1.896       .  S
V569        V822   2.083       .  T
V570       O1825   1.899       .  S
V570       O1575   1.901   1_556  S
V570        O820   1.898       .  S
V570        V821   2.083       .  T
C571       O1569   1.263       .  A
C571        C676   1.477       .  S
C572       O1575   1.264       .  A
C572        C687   1.480       .  S
C573        O815   1.265       .  A
C573        C589   1.506       .  S
C574        O817   1.265       .  A
C574        C603   1.508       .  S
O575        V583   1.898       .  S
O575        C585   1.264       .  A
O576        V583   1.897       .  S
O576        C586   1.265   1_554  A
O577        V583   1.903       .  S
O577        C587   1.263       .  A
O578        V583   1.900       .  S
O578        C588   1.264   1_554  A
O579        V584   1.902       .  S
O579        C840   1.263       .  A
O580        V584   1.900       .  S
O580        C839   1.264       .  A
O581        V584   1.901       .  S
O581        C838   1.265       .  A
O582        V584   1.901       .  S
O582        C837   1.265       .  A
V583        V836   2.087   1_554  T
V584        V835   2.087       .  T
C585        O834   1.265   1_554  A
C585        C620   1.489       .  S
C586        O833   1.265       .  A
C586        C631   1.493       .  S
C587        O832   1.264   1_554  A
C587        C592   1.478       .  S
C588        O831   1.263       .  A
C588        C606   1.478       .  S
C589        C590   1.427       .  A
C589        C846   1.425   1_554  A
C590        C591   1.412       .  A
C590        C595   1.452       .  S
C591        C592   1.406       .  A
C591        C598   1.451       .  S
C592        C845   1.405       .  A
C593        C844   1.405       .  A
C593        C594   1.411       .  A
C593        C596   1.450       .  S
C594        C841   1.425       .  A
C594        C597   1.452       .  S
C595        N602   1.158       .  T
C596        N601   1.156       .  T
C597        N599   1.158       .  T
C598        N600   1.157       .  T
C603        C604   1.426       .  A
C603        C860   1.427       .  A
C604        C605   1.411       .  A
C604        C609   1.452   1_556  S
C605        C606   1.404       .  A
C605        C612   1.450       .  S
C606        C859   1.405       .  A
C607        C858   1.405       .  A
C607        C608   1.412       .  A
C607        C610   1.451       .  S
C608        C855   1.427       .  A
C608        C611   1.452       .  S
C609        N616   1.158       .  T
C610        N615   1.157       .  T
C611        N613   1.158       .  T
C612        N614   1.157       .  T
C617        C618   1.415       .  A
C617        C874   1.416   1_554  A
C618        C619   1.412       .  A
C618        C623   1.452       .  S
C619        C620   1.415       .  A
C619        C626   1.452       .  S
C620        C873   1.415   1_554  A
C621        C872   1.415       .  A
C621        C622   1.411       .  A
C621        C624   1.452       .  S
C622        C869   1.416       .  A
C622        C625   1.452       .  S
C623        N630   1.157       .  T
C624        N629   1.157       .  T
C625        N627   1.157       .  T
C626        N628   1.157       .  T
C631        C632   1.417   1_556  A
C631        C888   1.417       .  A
C632        C633   1.411       .  A
C632        C637   1.453       .  S
C633        C634   1.412   1_554  A
C633        C640   1.448       .  S
C634        C887   1.416       .  A
C635        C886   1.416       .  A
C635        C636   1.412       .  A
C635        C638   1.452       .  S
C636        C883   1.417       .  A
C636        C639   1.452       .  S
C637        N644   1.157       .  T
C638        N643   1.157       .  T
C639        N641   1.157       .  T
C640        N642   1.156       .  T
C645        C646   1.424       .  A
C646        C647   1.414       .  A
C646        C651   1.451       .  S
C647        C648   1.408       .  A
C647        C654   1.451       .  S
C649        C650   1.410       .  A
C649        C652   1.449       .  S
C650        C653   1.453       .  S
C651        N658   1.158       .  T
C652        N657   1.156       .  T
C653        N655   1.158       .  T
C654        N656   1.157       .  T
C659        C664   1.422       .  A
C660        C661   1.412       .  A
C660        C665   1.451       .  S
C661        C668   1.452       .  S
C662        C663   1.409       .  A
C663        C664   1.411       .  A
C663        C666   1.453       .  S
C664        C667   1.451       .  S
C665        N672   1.157       .  T
C666        N671   1.157       .  T
C667        N669   1.157       .  T
C668        N670   1.158       .  T
C673       C1682   1.426       .  A
C673        C678   1.426       .  A
C674       C1681   1.426   1_455  A
C674        C675   1.412       .  A
C674        C679   1.451       .  S
C675       C1684   1.406   1_455  A
C675        C682   1.453       .  S
C676       C1683   1.406       .  A
C676        C677   1.406       .  A
C677        C678   1.412       .  A
C677        C680   1.453       .  S
C678        C681   1.452       .  S
C679        N686   1.157       .  T
C680        N685   1.157       .  T
C681        N683   1.158       .  T
C682        N684   1.157       .  T
C687       C1696   1.409       .  A
C687        C692   1.408       .  A
C688       C1695   1.409   1_455  A
C688        C689   1.412       .  A
C688        C693   1.452       .  S
C689       C1698   1.422   1_455  A
C689        C696   1.452       .  S
C690       C1697   1.422       .  A
C690        C691   1.421       .  A
C691        C692   1.411       .  A
C691        C694   1.450       .  S
C692        C695   1.452       .  S
C693        N700   1.157       .  T
C694        N699   1.157       .  T
C695        N697   1.157       .  T
C696        N698   1.158       .  T
C701        C702   1.414       .  A
C702        C703   1.411       .  A
C702        C707   1.451       .  S
C703        C704   1.416       .  A
C703        C710   1.452       .  S
C705        C706   1.412       .  A
C705        C708   1.452       .  S
C706        C709   1.451       .  S
C707        N714   1.157       .  T
C708        N713   1.158       .  T
C709        N711   1.157       .  T
C710        N712   1.157       .  T
C715        C720   1.409       .  A
C716        C717   1.411       .  A
C716        C721   1.452       .  S
C717        C724   1.452       .  S
C718        C719   1.423       .  A
C719        C720   1.413       .  A
C719        C722   1.451       .  S
C720        C723   1.452       .  S
C721        N728   1.157       .  T
C722        N727   1.157       .  T
C723        N725   1.157       .  T
C724        N726   1.158       .  T
C729        C730   1.419   1_655  A
C729       C1742   1.417       .  A
C730        C731   1.412       .  A
C730        C735   1.452       .  S
C731        C732   1.411   1_455  A
C731        C738   1.452       .  S
C732       C1523   1.481   1_655  S
C732       C1741   1.411       .  A
C733       C1740   1.411       .  A
C733        C734   1.411       .  A
C733        C736   1.453       .  S
C734       C1737   1.417       .  A
C734        C737   1.449       .  S
C735        N742   1.158       .  T
C736        N741   1.158       .  T
C737        N739   1.156       .  T
C738        N740   1.158       .  T
C743        C744   1.407       .  A
C743       C1756   1.406       .  A
C744        C745   1.412       .  A
C744        C749   1.451       .  S
C745       C1754   1.424       .  A
C745        C752   1.452       .  S
C746       C1753   1.424   1_455  A
C746        C747   1.424       .  A
C747        C748   1.411       .  A
C747        C750   1.452       .  S
C748       C1751   1.406       .  A
C748        C751   1.449       .  S
C749        N756   1.157       .  T
C750        N755   1.158       .  T
C751        N753   1.156       .  T
C752        N754   1.158       .  T
O757       V1773   1.902   1_665  S
O757       C1775   1.264   1_655  A
O758        C768   1.264       .  A
O759        V765   1.897       .  S
O760       V1269   1.896       .  S
O760        C770   1.263       .  A
O761       V1270   1.903       .  S
O762        V766   1.902       .  S
O762        C769   1.265       .  A
O763       V1774   1.902       .  S
O763       C1776   1.263       .  A
O764        C767   1.263       .  A
V765       O1765   1.902   1_545  S
V765       O1264   1.896   1_545  S
V766       O1265   1.903       .  S
V766       O1771   1.902       .  S
C767       O1765   1.264       .  A
C767       C1992   1.481       .  S
C768       O1771   1.263       .  A
C768        C995   1.480       .  S
C769        C970   1.502       .  S
C770        C956   1.491       .  S
O771        V779   1.898       .  S
O771       C1789   1.264       .  A
O772        V779   1.904       .  S
O772       C1790   1.266       .  A
O773        V779   1.901       .  S
O773        C783   1.265       .  A
O774        V779   1.897       .  S
O774        C784   1.264       .  A
O775        V780   1.901       .  S
O775       C1792   1.265   1_455  A
O776        V780   1.898       .  S
O776       C1791   1.265   1_455  A
O777        V780   1.897       .  S
O777        C782   1.264   1_455  A
O778        V780   1.898       .  S
O778        C781   1.265   1_455  A
V779       V1788   2.080       .  T
V780       V1787   2.080   1_455  T
C781       O1779   1.264       .  A
C781        C998   1.505   1_655  S
C782       O1780   1.266       .  A
C782        C981   1.493       .  S
C783       O1784   1.265       .  A
C783        C942   1.500       .  S
C784       O1783   1.265       .  A
C784        C925   1.506       .  S
O785        V793   1.892       .  S
O786        V793   1.897       .  S
O787        V793   1.901       .  S
O787        C797   1.264   1_565  A
O788        V793   1.901       .  S
O788        C798   1.265       .  A
O789        V794   1.899       .  S
O790        V794   1.901       .  S
O791        V794   1.901       .  S
O791        C796   1.265       .  A
O792        V794   1.905       .  S
O792        C795   1.266       .  A
C795        C897   1.505       .  S
C796        C914   1.481       .  S
O799        V807   1.904       .  S
O799        C809   1.267       .  A
O802        C812   1.263       .  A
O804        C811   1.266       .  A
O805        V808   1.895       .  S
O805        C810   1.263       .  A
C809        C869   1.491       .  S
C810        C886   1.490       .  S
C811        C900   1.481       .  S
C812        C911   1.499       .  S
O813       V1829   1.900       .  S
O813       C1831   1.263       .  A
O814        C824   1.263       .  A
O815        V821   1.899   1_554  S
O816       V1577   1.896       .  S
O816        C826   1.264       .  A
O817       V1578   1.899   1_455  S
O818        V822   1.896       .  S
O818        C825   1.264       .  A
O819       V1830   1.901       .  S
O819       C1832   1.264   1_655  A
O820        C823   1.263       .  A
V821       O1821   1.900       .  S
V821       O1572   1.896       .  S
V822       O1573   1.899       .  S
V822       O1827   1.901       .  S
C823       O1821   1.263       .  A
C823        C928   1.477       .  S
C824       O1827   1.264       .  A
C824        C939   1.480       .  S
C825        C841   1.506       .  S
C826        C855   1.508       .  S
O827        V835   1.898       .  S
O827        C837   1.264       .  A
O828        V835   1.897       .  S
O828        C838   1.265       .  A
O829        V835   1.903       .  S
O829        C839   1.263       .  A
O830        V835   1.900       .  S
O830        C840   1.264       .  A
O831        V836   1.902       .  S
O832        V836   1.900       .  S
O833        V836   1.901       .  S
O834        V836   1.901       .  S
C837        C872   1.489       .  S
C838        C883   1.493       .  S
C839        C844   1.478       .  S
C840        C858   1.478       .  S
C841        C842   1.427       .  A
C842        C843   1.412       .  A
C842        C847   1.452       .  S
C843        C844   1.406       .  A
C843        C850   1.451       .  S
C845        C846   1.411   1_554  A
C845        C848   1.450       .  S
C846        C849   1.452       .  S
C847        N854   1.158       .  T
C848        N853   1.156       .  T
C849        N851   1.158       .  T
C850        N852   1.157       .  T
C855        C856   1.426       .  A
C856        C857   1.411       .  A
C856        C861   1.452       .  S
C857        C858   1.404       .  A
C857        C864   1.450       .  S
C859        C860   1.412       .  A
C859        C862   1.451       .  S
C860        C863   1.452       .  S
C861        N868   1.158       .  T
C862        N867   1.157       .  T
C863        N865   1.158       .  T
C864        N866   1.157       .  T
C869        C870   1.415       .  A
C870        C871   1.412       .  A
C870        C875   1.452       .  S
C871        C872   1.415       .  A
C871        C878   1.452       .  S
C873        C874   1.411       .  A
C873        C876   1.452       .  S
C874        C877   1.452       .  S
C875        N882   1.157       .  T
C876        N881   1.157       .  T
C877        N879   1.157       .  T
C878        N880   1.157       .  T
C883        C884   1.417       .  A
C884        C885   1.411       .  A
C884        C889   1.453       .  S
C885        C886   1.412       .  A
C885        C892   1.448       .  S
C887        C888   1.412       .  A
C887        C890   1.452       .  S
C888        C891   1.452       .  S
C889        N896   1.157       .  T
C890        N895   1.157       .  T
C891        N893   1.157       .  T
C892        N894   1.156       .  T
C897        C898   1.424       .  A
C898        C899   1.414       .  A
C898        C903   1.451       .  S
C899        C900   1.408       .  A
C899        C906   1.451       .  S
C901        C902   1.410       .  A
C901        C904   1.449       .  S
C902        C905   1.453       .  S
C903        N910   1.158       .  T
C904        N909   1.156       .  T
C905        N907   1.158       .  T
C906        N908   1.157       .  T
C911        C916   1.422       .  A
C912        C913   1.412       .  A
C912        C917   1.451       .  S
C913        C920   1.452       .  S
C914        C915   1.409       .  A
C915        C916   1.411       .  A
C915        C918   1.453       .  S
C916        C919   1.451       .  S
C917        N924   1.157       .  T
C918        N923   1.157       .  T
C919        N921   1.157       .  T
C920        N922   1.158       .  T
C925       C1934   1.426       .  A
C925        C930   1.426       .  A
C926       C1933   1.426   1_455  A
C926        C927   1.412       .  A
C926        C931   1.451       .  S
C927       C1936   1.406   1_455  A
C927        C934   1.453       .  S
C928       C1935   1.406       .  A
C928        C929   1.406       .  A
C929        C930   1.412       .  A
C929        C932   1.453       .  S
C930        C933   1.452       .  S
C931        N938   1.157       .  T
C932        N937   1.157       .  T
C933        N935   1.158       .  T
C934        N936   1.157       .  T
C939       C1948   1.409       .  A
C939        C944   1.408       .  A
C940       C1947   1.409   1_455  A
C940        C941   1.412       .  A
C940        C945   1.452       .  S
C941       C1950   1.422   1_455  A
C941        C948   1.452       .  S
C942       C1949   1.422       .  A
C942        C943   1.421       .  A
C943        C944   1.411       .  A
C943        C946   1.450       .  S
C944        C947   1.452       .  S
C945        N952   1.157       .  T
C946        N951   1.157       .  T
C947        N949   1.157       .  T
C948        N950   1.158       .  T
C953        C954   1.414       .  A
C954        C955   1.411       .  A
C954        C959   1.451       .  S
C955        C956   1.416       .  A
C955        C962   1.452       .  S
C957        C958   1.412       .  A
C957        C960   1.452       .  S
C958        C961   1.451       .  S
C959        N966   1.157       .  T
C960        N965   1.158       .  T
C961        N963   1.157       .  T
C962        N964   1.157       .  T
C967        C972   1.409       .  A
C968        C969   1.411       .  A
C968        C973   1.452       .  S
C969        C976   1.452       .  S
C970        C971   1.423       .  A
C971        C972   1.413       .  A
C971        C974   1.451       .  S
C972        C975   1.452       .  S
C973        N980   1.157       .  T
C974        N979   1.157       .  T
C975        N977   1.157       .  T
C976        N978   1.158       .  T
C981        C982   1.419   1_655  A
C981       C1994   1.417       .  A
C982        C983   1.412       .  A
C982        C987   1.452       .  S
C983        C984   1.411   1_455  A
C983        C990   1.452       .  S
C984       C1775   1.481   1_655  S
C984       C1993   1.411       .  A
C985       C1992   1.411       .  A
C985        C986   1.411       .  A
C985        C988   1.453       .  S
C986       C1989   1.417       .  A
C986        C989   1.449       .  S
C987        N994   1.158       .  T
C988        N993   1.158       .  T
C989        N991   1.156       .  T
C990        N992   1.158       .  T
C995        C996   1.407       .  A
C995       C2008   1.406       .  A
C996        C997   1.412       .  A
C996       C1001   1.451       .  S
C997       C2006   1.424       .  A
C997       C1004   1.452       .  S
C998       C2005   1.424   1_455  A
C998        C999   1.424       .  A
C999       C1000   1.411       .  A
C999       C1002   1.452       .  S
C1000      C2003   1.406       .  A
C1000      C1003   1.449       .  S
C1001      N1008   1.157       .  T
C1002      N1007   1.158       .  T
C1003      N1005   1.156       .  T
C1004      N1006   1.158       .  T
O1010      V1521   1.902       .  S
O1010      C1020   1.264       .  A
O1011      V1017   1.897   1_655  S
O1011      C1525   1.265       .  A
O1012      C1022   1.263       .  A
O1013      C1526   1.267       .  A
O1014      V1018   1.902   1_655  S
O1014      C1021   1.265       .  A
O1016      V1522   1.895       .  S
O1016      C1019   1.263       .  A
V1017      O1514   1.902       .  S
V1017      V1522   2.085       .  T
V1018      O1520   1.895   1_545  S
V1018      V1521   2.085       .  T
C1020      C1247   1.480       .  S
C1021      O1515   1.265       .  A
C1021      C1222   1.502       .  S
C1022      O1517   1.267   1_565  A
C1022      C1208   1.491       .  S
O1023      V1031   1.898       .  S
O1024      V1031   1.904       .  S
O1025      V1031   1.901       .  S
O1025      C1035   1.265       .  A
O1026      V1031   1.897       .  S
O1026      C1036   1.264       .  A
O1027      V1032   1.901       .  S
O1028      V1032   1.898       .  S
O1029      V1032   1.897       .  S
O1029      C1034   1.264       .  A
O1030      V1032   1.898       .  S
O1030      C1033   1.265       .  A
C1033      C1250   1.505       .  S
C1034      C1233   1.493       .  S
C1035      C1194   1.500       .  S
C1036      C1177   1.506       .  S
O1037      V1045   1.892       .  S
O1037      C1551   1.264       .  A
O1038      V1045   1.897       .  S
O1038      C1552   1.263       .  A
O1039      V1045   1.901       .  S
O1039      C1049   1.264       .  A
O1040      V1045   1.901       .  S
O1040      C1050   1.265       .  A
O1041      V1046   1.899       .  S
O1041      C1554   1.265   1_545  A
O1042      V1046   1.901       .  S
O1042      C1553   1.264       .  A
O1043      V1046   1.901       .  S
O1043      C1048   1.265   1_545  A
O1044      V1046   1.905       .  S
O1044      C1047   1.266       .  A
V1045      V1550   2.083       .  T
V1046      V1549   2.083   1_545  T
C1047      O1541   1.264   1_545  A
C1047      C1149   1.505       .  S
C1048      O1542   1.263       .  A
C1048      C1166   1.481       .  S
C1049      O1546   1.264       .  A
C1049      C1723   1.481       .  S
C1050      O1545   1.265       .  A
C1050      C1709   1.488       .  S
O1051      V1059   1.904       .  S
O1051      C1061   1.267   1_556  A
O1052      V1815   1.906   1_545  S
O1052      C1314   1.267       .  A
O1053      V1311   1.899       .  S
O1053      C1567   1.262       .  A
O1054      V1563   1.896   1_554  S
O1054      C1064   1.263       .  A
O1055      V1564   1.904   1_554  S
O1055      C1568   1.267       .  A
O1056      V1312   1.906   1_565  S
O1056      C1063   1.266   1_565  A
O1057      V1060   1.895       .  S
O1057      C1062   1.263       .  A
O1058      V1816   1.895       .  S
O1058      C1313   1.262       .  A
V1059      O1808   1.906   1_556  S
V1059      O1305   1.899       .  S
V1059      O1558   1.896   1_556  S
V1059      V1564   2.084       .  T
V1060      O1559   1.904   1_556  S
V1060      O1308   1.906   1_545  S
V1060      O1814   1.895   1_546  S
V1060      V1563   2.084   1_545  T
C1061      O1310   1.262       .  A
C1061      C1121   1.491       .  S
C1062      O1304   1.267   1_556  A
C1062      C1138   1.490       .  S
C1063      O1557   1.262       .  A
C1063      C1152   1.481       .  S
C1064      O1559   1.267   1_565  A
C1064      C1163   1.499       .  S
O1066      V1325   1.897   1_554  S
O1066      C1076   1.263       .  A
O1067      V1073   1.899   1_655  S
O1067      C1329   1.265       .  A
O1068      C1078   1.264       .  A
O1069      C1330   1.265       .  A
O1070      V1074   1.896   1_554  S
O1070      C1077   1.264       .  A
O1072      V1326   1.898       .  S
O1072      C1075   1.263   1_655  A
V1073      O1318   1.897       .  S
V1073      V1326   2.083   1_455  T
V1074      O1324   1.898       .  S
V1074      V1325   2.083   1_655  T
C1075      C1180   1.477   1_455  S
C1076      C1191   1.480   1_455  S
C1077      O1319   1.265       .  A
C1077      C1093   1.506       .  S
C1078      O1321   1.265       .  A
C1078      C1107   1.508       .  S
O1079      V1087   1.898       .  S
O1079      C1089   1.264       .  A
O1080      V1087   1.897       .  S
O1080      C1090   1.265   1_554  A
O1081      V1087   1.903       .  S
O1081      C1091   1.263       .  A
O1082      V1087   1.900       .  S
O1082      C1092   1.264   1_554  A
O1083      V1088   1.902       .  S
O1083      C1344   1.263       .  A
O1084      V1088   1.900       .  S
O1084      C1343   1.264       .  A
O1085      V1088   1.901       .  S
O1085      C1342   1.265       .  A
O1086      V1088   1.901       .  S
O1086      C1341   1.265       .  A
V1087      V1340   2.087   1_554  T
V1088      V1339   2.087       .  T
C1089      O1338   1.265   1_554  A
C1089      C1124   1.489       .  S
C1090      O1337   1.265       .  A
C1090      C1135   1.493       .  S
C1091      O1336   1.264   1_554  A
C1091      C1096   1.478       .  S
C1092      O1335   1.263       .  A
C1092      C1110   1.478       .  S
C1093      C1094   1.427       .  A
C1093      C1350   1.425   1_554  A
C1094      C1095   1.412       .  A
C1094      C1099   1.452       .  S
C1095      C1096   1.406       .  A
C1095      C1102   1.451       .  S
C1096      C1349   1.405       .  A
C1097      C1348   1.405       .  A
C1097      C1098   1.411       .  A
C1097      C1100   1.450       .  S
C1098      C1345   1.425       .  A
C1098      C1101   1.452       .  S
C1099      N1106   1.158       .  T
C1100      N1105   1.156       .  T
C1101      N1103   1.158       .  T
C1102      N1104   1.157       .  T
C1107      C1108   1.426       .  A
C1107      C1364   1.427       .  A
C1108      C1109   1.411       .  A
C1108      C1113   1.452   1_556  S
C1109      C1110   1.404       .  A
C1109      C1116   1.450       .  S
C1110      C1363   1.405       .  A
C1111      C1362   1.405       .  A
C1111      C1112   1.412       .  A
C1111      C1114   1.451       .  S
C1112      C1359   1.427       .  A
C1112      C1115   1.452       .  S
C1113      N1120   1.158       .  T
C1114      N1119   1.157       .  T
C1115      N1117   1.158       .  T
C1116      N1118   1.157       .  T
C1121      C1122   1.415       .  A
C1121      C1378   1.416   1_554  A
C1122      C1123   1.412       .  A
C1122      C1127   1.452       .  S
C1123      C1124   1.415       .  A
C1123      C1130   1.452       .  S
C1124      C1377   1.415   1_554  A
C1125      C1376   1.415       .  A
C1125      C1126   1.411       .  A
C1125      C1128   1.452       .  S
C1126      C1373   1.416       .  A
C1126      C1129   1.452       .  S
C1127      N1134   1.157       .  T
C1128      N1133   1.157       .  T
C1129      N1131   1.157       .  T
C1130      N1132   1.157       .  T
C1135      C1136   1.417   1_556  A
C1135      C1392   1.417       .  A
C1136      C1137   1.411       .  A
C1136      C1141   1.453       .  S
C1137      C1138   1.412   1_554  A
C1137      C1144   1.448       .  S
C1138      C1391   1.416       .  A
C1139      C1390   1.416       .  A
C1139      C1140   1.412       .  A
C1139      C1142   1.452       .  S
C1140      C1387   1.417       .  A
C1140      C1143   1.452       .  S
C1141      N1148   1.157       .  T
C1142      N1147   1.157       .  T
C1143      N1145   1.157       .  T
C1144      N1146   1.156       .  T
C1149      C1150   1.424       .  A
C1149      C1658   1.425   1_545  A
C1150      C1151   1.414       .  A
C1150      C1155   1.451       .  S
C1151      C1152   1.408       .  A
C1151      C1158   1.451       .  S
C1152      C1657   1.405   1_545  A
C1153      C1656   1.405       .  A
C1153      C1154   1.410       .  A
C1153      C1156   1.449       .  S
C1154      C1653   1.425       .  A
C1154      C1157   1.453       .  S
C1155      N1162   1.158       .  T
C1156      N1161   1.156       .  T
C1157      N1159   1.158       .  T
C1158      N1160   1.157       .  T
C1163      C1668   1.421       .  A
C1163      C1168   1.422   1_565  A
C1164      C1667   1.421       .  A
C1164      C1165   1.412       .  A
C1164      C1169   1.451       .  S
C1165      C1670   1.410       .  A
C1165      C1172   1.452       .  S
C1166      C1669   1.410       .  A
C1166      C1167   1.409   1_565  A
C1167      C1168   1.411       .  A
C1167      C1170   1.453       .  S
C1168      C1171   1.451       .  S
C1169      N1176   1.157       .  T
C1170      N1175   1.157       .  T
C1171      N1173   1.157       .  T
C1172      N1174   1.158       .  T
C1177      C1182   1.426       .  A
C1178      C1179   1.412       .  A
C1178      C1183   1.451       .  S
C1179      C1186   1.453       .  S
C1180      C1181   1.406       .  A
C1181      C1182   1.412       .  A
C1181      C1184   1.453       .  S
C1182      C1185   1.452       .  S
C1183      N1190   1.157       .  T
C1184      N1189   1.157       .  T
C1185      N1187   1.158       .  T
C1186      N1188   1.157       .  T
C1191      C1196   1.408       .  A
C1192      C1193   1.412       .  A
C1192      C1197   1.452       .  S
C1193      C1200   1.452       .  S
C1194      C1195   1.421       .  A
C1195      C1196   1.411       .  A
C1195      C1198   1.450       .  S
C1196      C1199   1.452       .  S
C1197      N1204   1.157       .  T
C1198      N1203   1.157       .  T
C1199      N1201   1.157       .  T
C1200      N1202   1.158       .  T
C1205      C1554   1.488       .  S
C1205      C1206   1.414   1_565  A
C1205      C1714   1.414       .  A
C1206      C1207   1.411       .  A
C1206      C1211   1.451       .  S
C1207      C1208   1.416   1_545  A
C1207      C1214   1.452       .  S
C1208      C1713   1.415       .  A
C1209      C1712   1.415       .  A
C1209      C1210   1.412       .  A
C1209      C1212   1.452       .  S
C1210      C1709   1.414       .  A
C1210      C1213   1.451       .  S
C1211      N1218   1.157       .  T
C1212      N1217   1.158       .  T
C1213      N1215   1.157       .  T
C1214      N1216   1.157       .  T
C1219      C1553   1.481       .  S
C1219      C1724   1.408   1_545  A
C1219      C1224   1.409       .  A
C1220      C1723   1.408       .  A
C1220      C1221   1.411       .  A
C1220      C1225   1.452       .  S
C1221      C1726   1.422       .  A
C1221      C1228   1.452       .  S
C1222      C1725   1.422   1_545  A
C1222      C1223   1.423       .  A
C1223      C1224   1.413       .  A
C1223      C1226   1.451       .  S
C1224      C1227   1.452       .  S
C1225      N1232   1.157       .  T
C1226      N1231   1.157       .  T
C1227      N1229   1.157       .  T
C1228      N1230   1.158       .  T
C1233      C1234   1.419       .  A
C1234      C1235   1.412       .  A
C1234      C1239   1.452       .  S
C1235      C1236   1.411       .  A
C1235      C1242   1.452       .  S
C1237      C1238   1.411       .  A
C1237      C1240   1.453       .  S
C1238      C1241   1.449       .  S
C1239      N1246   1.158       .  T
C1240      N1245   1.158       .  T
C1241      N1243   1.156       .  T
C1242      N1244   1.158       .  T
C1247      C1248   1.407   1_455  A
C1248      C1249   1.412       .  A
C1248      C1253   1.451       .  S
C1249      C1256   1.452       .  S
C1250      C1251   1.424       .  A
C1251      C1252   1.411       .  A
C1251      C1254   1.452       .  S
C1252      C1255   1.449       .  S
C1253      N1260   1.157       .  T
C1254      N1259   1.158       .  T
C1255      N1257   1.156       .  T
C1256      N1258   1.158       .  T
O1262      V1773   1.902       .  S
O1262      C1272   1.264       .  A
O1263      V1269   1.897   1_655  S
O1263      C1777   1.265       .  A
O1264      C1274   1.263       .  A
O1265      C1778   1.267       .  A
O1266      V1270   1.902   1_655  S
O1266      C1273   1.265       .  A
O1268      V1774   1.895       .  S
O1268      C1271   1.263       .  A
V1269      O1766   1.902       .  S
V1269      V1774   2.085       .  T
V1270      O1772   1.895   1_545  S
V1270      V1773   2.085       .  T
C1272      C1499   1.480       .  S
C1273      O1767   1.265       .  A
C1273      C1474   1.502       .  S
C1274      O1769   1.267   1_565  A
C1274      C1460   1.491       .  S
O1275      V1283   1.898       .  S
O1276      V1283   1.904       .  S
O1277      V1283   1.901       .  S
O1277      C1287   1.265       .  A
O1278      V1283   1.897       .  S
O1278      C1288   1.264       .  A
O1279      V1284   1.901       .  S
O1280      V1284   1.898       .  S
O1281      V1284   1.897       .  S
O1281      C1286   1.264       .  A
O1282      V1284   1.898       .  S
O1282      C1285   1.265       .  A
C1285      C1502   1.505       .  S
C1286      C1485   1.493       .  S
C1287      C1446   1.500       .  S
C1288      C1429   1.506       .  S
O1289      V1297   1.892       .  S
O1289      C1803   1.264       .  A
O1290      V1297   1.897       .  S
O1290      C1804   1.263       .  A
O1291      V1297   1.901       .  S
O1291      C1301   1.264       .  A
O1292      V1297   1.901       .  S
O1292      C1302   1.265       .  A
O1293      V1298   1.899       .  S
O1293      C1806   1.265   1_545  A
O1294      V1298   1.901       .  S
O1294      C1805   1.264       .  A
O1295      V1298   1.901       .  S
O1295      C1300   1.265   1_545  A
O1296      V1298   1.905       .  S
O1296      C1299   1.266       .  A
V1297      V1802   2.083       .  T
V1298      V1801   2.083   1_545  T
C1299      O1793   1.264   1_545  A
C1299      C1401   1.505       .  S
C1300      O1794   1.263       .  A
C1300      C1418   1.481       .  S
C1301      O1798   1.264       .  A
C1301      C1975   1.481       .  S
C1302      O1797   1.265       .  A
C1302      C1961   1.488       .  S
O1303      V1311   1.904       .  S
O1303      C1313   1.267       .  A
O1304      V1563   1.906   1_544  S
O1305      C1819   1.262       .  A
O1306      V1815   1.896       .  S
O1306      C1316   1.263       .  A
O1307      V1816   1.904       .  S
O1307      C1820   1.267       .  A
O1308      C1315   1.266   1_565  A
O1309      V1312   1.895       .  S
O1309      C1314   1.263       .  A
O1310      V1564   1.895   1_554  S
V1311      O1556   1.906       .  S
V1311      O1810   1.896       .  S
V1311      V1816   2.084       .  T
V1312      O1811   1.904       .  S
V1312      O1562   1.895   1_545  S
V1312      V1815   2.084   1_545  T
C1313      C1373   1.491       .  S
C1314      C1390   1.490       .  S
C1315      O1809   1.262       .  A
C1315      C1404   1.481       .  S
C1316      O1811   1.267   1_565  A
C1316      C1415   1.499       .  S
O1318      C1328   1.263       .  A
O1319      V1325   1.899   1_654  S
O1320      C1330   1.264       .  A
O1322      V1326   1.896       .  S
O1322      C1329   1.264       .  A
O1324      C1327   1.263   1_655  A
C1327      C1432   1.477   1_455  S
C1328      C1443   1.480   1_455  S
C1329      C1345   1.506       .  S
C1330      C1359   1.508       .  S
O1331      V1339   1.898       .  S
O1331      C1341   1.264       .  A
O1332      V1339   1.897       .  S
O1332      C1342   1.265       .  A
O1333      V1339   1.903       .  S
O1333      C1343   1.263       .  A
O1334      V1339   1.900       .  S
O1334      C1344   1.264       .  A
O1335      V1340   1.902       .  S
O1336      V1340   1.900       .  S
O1337      V1340   1.901       .  S
O1338      V1340   1.901       .  S
C1341      C1376   1.489       .  S
C1342      C1387   1.493       .  S
C1343      C1348   1.478       .  S
C1344      C1362   1.478       .  S
C1345      C1346   1.427       .  A
C1346      C1347   1.412       .  A
C1346      C1351   1.452       .  S
C1347      C1348   1.406       .  A
C1347      C1354   1.451       .  S
C1349      C1350   1.411   1_554  A
C1349      C1352   1.450       .  S
C1350      C1353   1.452       .  S
C1351      N1358   1.158       .  T
C1352      N1357   1.156       .  T
C1353      N1355   1.158       .  T
C1354      N1356   1.157       .  T
C1359      C1360   1.426       .  A
C1360      C1361   1.411       .  A
C1360      C1365   1.452       .  S
C1361      C1362   1.404       .  A
C1361      C1368   1.450       .  S
C1363      C1364   1.412       .  A
C1363      C1366   1.451       .  S
C1364      C1367   1.452       .  S
C1365      N1372   1.158       .  T
C1366      N1371   1.157       .  T
C1367      N1369   1.158       .  T
C1368      N1370   1.157       .  T
C1373      C1374   1.415       .  A
C1374      C1375   1.412       .  A
C1374      C1379   1.452       .  S
C1375      C1376   1.415       .  A
C1375      C1382   1.452       .  S
C1377      C1378   1.411       .  A
C1377      C1380   1.452       .  S
C1378      C1381   1.452       .  S
C1379      N1386   1.157       .  T
C1380      N1385   1.157       .  T
C1381      N1383   1.157       .  T
C1382      N1384   1.157       .  T
C1387      C1388   1.417       .  A
C1388      C1389   1.411       .  A
C1388      C1393   1.453       .  S
C1389      C1390   1.412       .  A
C1389      C1396   1.448       .  S
C1391      C1392   1.412       .  A
C1391      C1394   1.452       .  S
C1392      C1395   1.452       .  S
C1393      N1400   1.157       .  T
C1394      N1399   1.157       .  T
C1395      N1397   1.157       .  T
C1396      N1398   1.156       .  T
C1401      C1402   1.424       .  A
C1401      C1910   1.425   1_545  A
C1402      C1403   1.414       .  A
C1402      C1407   1.451       .  S
C1403      C1404   1.408       .  A
C1403      C1410   1.451       .  S
C1404      C1909   1.405   1_545  A
C1405      C1908   1.405       .  A
C1405      C1406   1.410       .  A
C1405      C1408   1.449       .  S
C1406      C1905   1.425       .  A
C1406      C1409   1.453       .  S
C1407      N1414   1.158       .  T
C1408      N1413   1.156       .  T
C1409      N1411   1.158       .  T
C1410      N1412   1.157       .  T
C1415      C1920   1.421       .  A
C1415      C1420   1.422   1_565  A
C1416      C1919   1.421       .  A
C1416      C1417   1.412       .  A
C1416      C1421   1.451       .  S
C1417      C1922   1.410       .  A
C1417      C1424   1.452       .  S
C1418      C1921   1.410       .  A
C1418      C1419   1.409   1_565  A
C1419      C1420   1.411       .  A
C1419      C1422   1.453       .  S
C1420      C1423   1.451       .  S
C1421      N1428   1.157       .  T
C1422      N1427   1.157       .  T
C1423      N1425   1.157       .  T
C1424      N1426   1.158       .  T
C1429      C1434   1.426       .  A
C1430      C1431   1.412       .  A
C1430      C1435   1.451       .  S
C1431      C1438   1.453       .  S
C1432      C1433   1.406       .  A
C1433      C1434   1.412       .  A
C1433      C1436   1.453       .  S
C1434      C1437   1.452       .  S
C1435      N1442   1.157       .  T
C1436      N1441   1.157       .  T
C1437      N1439   1.158       .  T
C1438      N1440   1.157       .  T
C1443      C1448   1.408       .  A
C1444      C1445   1.412       .  A
C1444      C1449   1.452       .  S
C1445      C1452   1.452       .  S
C1446      C1447   1.421       .  A
C1447      C1448   1.411       .  A
C1447      C1450   1.450       .  S
C1448      C1451   1.452       .  S
C1449      N1456   1.157       .  T
C1450      N1455   1.157       .  T
C1451      N1453   1.157       .  T
C1452      N1454   1.158       .  T
C1457      C1806   1.488       .  S
C1457      C1458   1.414   1_565  A
C1457      C1966   1.414       .  A
C1458      C1459   1.411       .  A
C1458      C1463   1.451       .  S
C1459      C1460   1.416   1_545  A
C1459      C1466   1.452       .  S
C1460      C1965   1.415       .  A
C1461      C1964   1.415       .  A
C1461      C1462   1.412       .  A
C1461      C1464   1.452       .  S
C1462      C1961   1.414       .  A
C1462      C1465   1.451       .  S
C1463      N1470   1.157       .  T
C1464      N1469   1.158       .  T
C1465      N1467   1.157       .  T
C1466      N1468   1.157       .  T
C1471      C1805   1.481       .  S
C1471      C1976   1.408   1_545  A
C1471      C1476   1.409       .  A
C1472      C1975   1.408       .  A
C1472      C1473   1.411       .  A
C1472      C1477   1.452       .  S
C1473      C1978   1.422       .  A
C1473      C1480   1.452       .  S
C1474      C1977   1.422   1_545  A
C1474      C1475   1.423       .  A
C1475      C1476   1.413       .  A
C1475      C1478   1.451       .  S
C1476      C1479   1.452       .  S
C1477      N1484   1.157       .  T
C1478      N1483   1.157       .  T
C1479      N1481   1.157       .  T
C1480      N1482   1.158       .  T
C1485      C1486   1.419       .  A
C1486      C1487   1.412       .  A
C1486      C1491   1.452       .  S
C1487      C1488   1.411       .  A
C1487      C1494   1.452       .  S
C1489      C1490   1.411       .  A
C1489      C1492   1.453       .  S
C1490      C1493   1.449       .  S
C1491      N1498   1.158       .  T
C1492      N1497   1.158       .  T
C1493      N1495   1.156       .  T
C1494      N1496   1.158       .  T
C1499      C1500   1.407   1_455  A
C1500      C1501   1.412       .  A
C1500      C1505   1.451       .  S
C1501      C1508   1.452       .  S
C1502      C1503   1.424       .  A
C1503      C1504   1.411       .  A
C1503      C1506   1.452       .  S
C1504      C1507   1.449       .  S
C1505      N1512   1.157       .  T
C1506      N1511   1.158       .  T
C1507      N1509   1.156       .  T
C1508      N1510   1.158       .  T
O1514      C1524   1.264       .  A
O1515      V1521   1.897   1_655  S
O1516      C1526   1.263       .  A
O1518      V1522   1.902   1_655  S
O1518      C1525   1.265       .  A
O1520      C1523   1.263       .  A
C1524      C1751   1.480       .  S
C1525      C1726   1.502       .  S
C1526      C1712   1.491       .  S
O1527      V1535   1.898       .  S
O1528      V1535   1.904       .  S
O1529      V1535   1.901       .  S
O1529      C1539   1.265       .  A
O1530      V1535   1.897       .  S
O1530      C1540   1.264       .  A
O1531      V1536   1.901       .  S
O1532      V1536   1.898       .  S
O1533      V1536   1.897       .  S
O1533      C1538   1.264       .  A
O1534      V1536   1.898       .  S
O1534      C1537   1.265       .  A
C1537      C1754   1.505       .  S
C1538      C1737   1.493       .  S
C1539      C1698   1.500       .  S
C1540      C1681   1.506       .  S
O1541      V1549   1.892       .  S
O1542      V1549   1.897       .  S
O1543      V1549   1.901       .  S
O1543      C1553   1.264   1_565  A
O1544      V1549   1.901       .  S
O1544      C1554   1.265       .  A
O1545      V1550   1.899       .  S
O1546      V1550   1.901       .  S
O1547      V1550   1.901       .  S
O1547      C1552   1.265       .  A
O1548      V1550   1.905       .  S
O1548      C1551   1.266       .  A
C1551      C1653   1.505       .  S
C1552      C1670   1.481       .  S
O1555      V1563   1.904       .  S
O1555      C1565   1.267   1_556  A
O1556      C1818   1.267       .  A
O1557      V1815   1.899   1_545  S
O1558      C1568   1.263       .  A
O1560      V1816   1.906       .  S
O1560      C1567   1.266       .  A
O1561      V1564   1.895       .  S
O1561      C1566   1.263       .  A
O1562      C1817   1.262       .  A
V1563      O1809   1.899   1_565  S
V1564      O1812   1.906       .  S
C1565      O1814   1.262       .  A
C1565      C1625   1.491       .  S
C1566      O1808   1.267   1_556  A
C1566      C1642   1.490       .  S
C1567      C1656   1.481       .  S
C1568      C1667   1.499       .  S
O1570      V1829   1.897   1_554  S
O1570      C1580   1.263       .  A
O1571      V1577   1.899   1_655  S
O1571      C1833   1.265       .  A
O1572      C1582   1.264       .  A
O1573      C1834   1.265       .  A
O1574      V1578   1.896   1_554  S
O1574      C1581   1.264       .  A
O1576      V1830   1.898       .  S
O1576      C1579   1.263   1_655  A
V1577      O1822   1.897       .  S
V1577      V1830   2.083   1_455  T
V1578      O1828   1.898       .  S
V1578      V1829   2.083   1_655  T
C1579      C1684   1.477   1_455  S
C1580      C1695   1.480   1_455  S
C1581      O1823   1.265       .  A
C1581      C1597   1.506       .  S
C1582      O1825   1.265       .  A
C1582      C1611   1.508       .  S
O1583      V1591   1.898       .  S
O1583      C1593   1.264       .  A
O1584      V1591   1.897       .  S
O1584      C1594   1.265   1_554  A
O1585      V1591   1.903       .  S
O1585      C1595   1.263       .  A
O1586      V1591   1.900       .  S
O1586      C1596   1.264   1_554  A
O1587      V1592   1.902       .  S
O1587      C1848   1.263       .  A
O1588      V1592   1.900       .  S
O1588      C1847   1.264       .  A
O1589      V1592   1.901       .  S
O1589      C1846   1.265       .  A
O1590      V1592   1.901       .  S
O1590      C1845   1.265       .  A
V1591      V1844   2.087   1_554  T
V1592      V1843   2.087       .  T
C1593      O1842   1.265   1_554  A
C1593      C1628   1.489       .  S
C1594      O1841   1.265       .  A
C1594      C1639   1.493       .  S
C1595      O1840   1.264   1_554  A
C1595      C1600   1.478       .  S
C1596      O1839   1.263       .  A
C1596      C1614   1.478       .  S
C1597      C1598   1.427       .  A
C1597      C1854   1.425   1_554  A
C1598      C1599   1.412       .  A
C1598      C1603   1.452       .  S
C1599      C1600   1.406       .  A
C1599      C1606   1.451       .  S
C1600      C1853   1.405       .  A
C1601      C1852   1.405       .  A
C1601      C1602   1.411       .  A
C1601      C1604   1.450       .  S
C1602      C1849   1.425       .  A
C1602      C1605   1.452       .  S
C1603      N1610   1.158       .  T
C1604      N1609   1.156       .  T
C1605      N1607   1.158       .  T
C1606      N1608   1.157       .  T
C1611      C1612   1.426       .  A
C1611      C1868   1.427       .  A
C1612      C1613   1.411       .  A
C1612      C1617   1.452   1_556  S
C1613      C1614   1.404       .  A
C1613      C1620   1.450       .  S
C1614      C1867   1.405       .  A
C1615      C1866   1.405       .  A
C1615      C1616   1.412       .  A
C1615      C1618   1.451       .  S
C1616      C1863   1.427       .  A
C1616      C1619   1.452       .  S
C1617      N1624   1.158       .  T
C1618      N1623   1.157       .  T
C1619      N1621   1.158       .  T
C1620      N1622   1.157       .  T
C1625      C1626   1.415       .  A
C1625      C1882   1.416   1_554  A
C1626      C1627   1.412       .  A
C1626      C1631   1.452       .  S
C1627      C1628   1.415       .  A
C1627      C1634   1.452       .  S
C1628      C1881   1.415   1_554  A
C1629      C1880   1.415       .  A
C1629      C1630   1.411       .  A
C1629      C1632   1.452       .  S
C1630      C1877   1.416       .  A
C1630      C1633   1.452       .  S
C1631      N1638   1.157       .  T
C1632      N1637   1.157       .  T
C1633      N1635   1.157       .  T
C1634      N1636   1.157       .  T
C1639      C1640   1.417   1_556  A
C1639      C1896   1.417       .  A
C1640      C1641   1.411       .  A
C1640      C1645   1.453       .  S
C1641      C1642   1.412   1_554  A
C1641      C1648   1.448       .  S
C1642      C1895   1.416       .  A
C1643      C1894   1.416       .  A
C1643      C1644   1.412       .  A
C1643      C1646   1.452       .  S
C1644      C1891   1.417       .  A
C1644      C1647   1.452       .  S
C1645      N1652   1.157       .  T
C1646      N1651   1.157       .  T
C1647      N1649   1.157       .  T
C1648      N1650   1.156       .  T
C1653      C1654   1.424       .  A
C1654      C1655   1.414       .  A
C1654      C1659   1.451       .  S
C1655      C1656   1.408       .  A
C1655      C1662   1.451       .  S
C1657      C1658   1.410       .  A
C1657      C1660   1.449       .  S
C1658      C1661   1.453       .  S
C1659      N1666   1.158       .  T
C1660      N1665   1.156       .  T
C1661      N1663   1.158       .  T
C1662      N1664   1.157       .  T
C1667      C1672   1.422       .  A
C1668      C1669   1.412       .  A
C1668      C1673   1.451       .  S
C1669      C1676   1.452       .  S
C1670      C1671   1.409       .  A
C1671      C1672   1.411       .  A
C1671      C1674   1.453       .  S
C1672      C1675   1.451       .  S
C1673      N1680   1.157       .  T
C1674      N1679   1.157       .  T
C1675      N1677   1.157       .  T
C1676      N1678   1.158       .  T
C1681      C1686   1.426       .  A
C1682      C1683   1.412       .  A
C1682      C1687   1.451       .  S
C1683      C1690   1.453       .  S
C1684      C1685   1.406       .  A
C1685      C1686   1.412       .  A
C1685      C1688   1.453       .  S
C1686      C1689   1.452       .  S
C1687      N1694   1.157       .  T
C1688      N1693   1.157       .  T
C1689      N1691   1.158       .  T
C1690      N1692   1.157       .  T
C1695      C1700   1.408       .  A
C1696      C1697   1.412       .  A
C1696      C1701   1.452       .  S
C1697      C1704   1.452       .  S
C1698      C1699   1.421       .  A
C1699      C1700   1.411       .  A
C1699      C1702   1.450       .  S
C1700      C1703   1.452       .  S
C1701      N1708   1.157       .  T
C1702      N1707   1.157       .  T
C1703      N1705   1.157       .  T
C1704      N1706   1.158       .  T
C1709      C1710   1.414       .  A
C1710      C1711   1.411       .  A
C1710      C1715   1.451       .  S
C1711      C1712   1.416       .  A
C1711      C1718   1.452       .  S
C1713      C1714   1.412       .  A
C1713      C1716   1.452       .  S
C1714      C1717   1.451       .  S
C1715      N1722   1.157       .  T
C1716      N1721   1.158       .  T
C1717      N1719   1.157       .  T
C1718      N1720   1.157       .  T
C1723      C1728   1.409       .  A
C1724      C1725   1.411       .  A
C1724      C1729   1.452       .  S
C1725      C1732   1.452       .  S
C1726      C1727   1.423       .  A
C1727      C1728   1.413       .  A
C1727      C1730   1.451       .  S
C1728      C1731   1.452       .  S
C1729      N1736   1.157       .  T
C1730      N1735   1.157       .  T
C1731      N1733   1.157       .  T
C1732      N1734   1.158       .  T
C1737      C1738   1.419       .  A
C1738      C1739   1.412       .  A
C1738      C1743   1.452       .  S
C1739      C1740   1.411       .  A
C1739      C1746   1.452       .  S
C1741      C1742   1.411       .  A
C1741      C1744   1.453       .  S
C1742      C1745   1.449       .  S
C1743      N1750   1.158       .  T
C1744      N1749   1.158       .  T
C1745      N1747   1.156       .  T
C1746      N1748   1.158       .  T
C1751      C1752   1.407   1_455  A
C1752      C1753   1.412       .  A
C1752      C1757   1.451       .  S
C1753      C1760   1.452       .  S
C1754      C1755   1.424       .  A
C1755      C1756   1.411       .  A
C1755      C1758   1.452       .  S
C1756      C1759   1.449       .  S
C1757      N1764   1.157       .  T
C1758      N1763   1.158       .  T
C1759      N1761   1.156       .  T
C1760      N1762   1.158       .  T
O1766      C1776   1.264       .  A
O1767      V1773   1.897   1_655  S
O1768      C1778   1.263       .  A
O1770      V1774   1.902   1_655  S
O1770      C1777   1.265       .  A
O1772      C1775   1.263       .  A
C1776      C2003   1.480       .  S
C1777      C1978   1.502       .  S
C1778      C1964   1.491       .  S
O1779      V1787   1.898       .  S
O1780      V1787   1.904       .  S
O1781      V1787   1.901       .  S
O1781      C1791   1.265       .  A
O1782      V1787   1.897       .  S
O1782      C1792   1.264       .  A
O1783      V1788   1.901       .  S
O1784      V1788   1.898       .  S
O1785      V1788   1.897       .  S
O1785      C1790   1.264       .  A
O1786      V1788   1.898       .  S
O1786      C1789   1.265       .  A
C1789      C2006   1.505       .  S
C1790      C1989   1.493       .  S
C1791      C1950   1.500       .  S
C1792      C1933   1.506       .  S
O1793      V1801   1.892       .  S
O1794      V1801   1.897       .  S
O1795      V1801   1.901       .  S
O1795      C1805   1.264   1_565  A
O1796      V1801   1.901       .  S
O1796      C1806   1.265       .  A
O1797      V1802   1.899       .  S
O1798      V1802   1.901       .  S
O1799      V1802   1.901       .  S
O1799      C1804   1.265       .  A
O1800      V1802   1.905       .  S
O1800      C1803   1.266       .  A
C1803      C1905   1.505       .  S
C1804      C1922   1.481       .  S
O1807      V1815   1.904       .  S
O1807      C1817   1.267       .  A
O1810      C1820   1.263       .  A
O1812      C1819   1.266       .  A
O1813      V1816   1.895       .  S
O1813      C1818   1.263       .  A
C1817      C1877   1.491       .  S
C1818      C1894   1.490       .  S
C1819      C1908   1.481       .  S
C1820      C1919   1.499       .  S
O1822      C1832   1.263       .  A
O1823      V1829   1.899   1_654  S
O1824      C1834   1.264       .  A
O1826      V1830   1.896       .  S
O1826      C1833   1.264       .  A
O1828      C1831   1.263   1_655  A
C1831      C1936   1.477   1_455  S
C1832      C1947   1.480   1_455  S
C1833      C1849   1.506       .  S
C1834      C1863   1.508       .  S
O1835      V1843   1.898       .  S
O1835      C1845   1.264       .  A
O1836      V1843   1.897       .  S
O1836      C1846   1.265       .  A
O1837      V1843   1.903       .  S
O1837      C1847   1.263       .  A
O1838      V1843   1.900       .  S
O1838      C1848   1.264       .  A
O1839      V1844   1.902       .  S
O1840      V1844   1.900       .  S
O1841      V1844   1.901       .  S
O1842      V1844   1.901       .  S
C1845      C1880   1.489       .  S
C1846      C1891   1.493       .  S
C1847      C1852   1.478       .  S
C1848      C1866   1.478       .  S
C1849      C1850   1.427       .  A
C1850      C1851   1.412       .  A
C1850      C1855   1.452       .  S
C1851      C1852   1.406       .  A
C1851      C1858   1.451       .  S
C1853      C1854   1.411   1_554  A
C1853      C1856   1.450       .  S
C1854      C1857   1.452       .  S
C1855      N1862   1.158       .  T
C1856      N1861   1.156       .  T
C1857      N1859   1.158       .  T
C1858      N1860   1.157       .  T
C1863      C1864   1.426       .  A
C1864      C1865   1.411       .  A
C1864      C1869   1.452       .  S
C1865      C1866   1.404       .  A
C1865      C1872   1.450       .  S
C1867      C1868   1.412       .  A
C1867      C1870   1.451       .  S
C1868      C1871   1.452       .  S
C1869      N1876   1.158       .  T
C1870      N1875   1.157       .  T
C1871      N1873   1.158       .  T
C1872      N1874   1.157       .  T
C1877      C1878   1.415       .  A
C1878      C1879   1.412       .  A
C1878      C1883   1.452       .  S
C1879      C1880   1.415       .  A
C1879      C1886   1.452       .  S
C1881      C1882   1.411       .  A
C1881      C1884   1.452       .  S
C1882      C1885   1.452       .  S
C1883      N1890   1.157       .  T
C1884      N1889   1.157       .  T
C1885      N1887   1.157       .  T
C1886      N1888   1.157       .  T
C1891      C1892   1.417       .  A
C1892      C1893   1.411       .  A
C1892      C1897   1.453       .  S
C1893      C1894   1.412       .  A
C1893      C1900   1.448       .  S
C1895      C1896   1.412       .  A
C1895      C1898   1.452       .  S
C1896      C1899   1.452       .  S
C1897      N1904   1.157       .  T
C1898      N1903   1.157       .  T
C1899      N1901   1.157       .  T
C1900      N1902   1.156       .  T
C1905      C1906   1.424       .  A
C1906      C1907   1.414       .  A
C1906      C1911   1.451       .  S
C1907      C1908   1.408       .  A
C1907      C1914   1.451       .  S
C1909      C1910   1.410       .  A
C1909      C1912   1.449       .  S
C1910      C1913   1.453       .  S
C1911      N1918   1.158       .  T
C1912      N1917   1.156       .  T
C1913      N1915   1.158       .  T
C1914      N1916   1.157       .  T
C1919      C1924   1.422       .  A
C1920      C1921   1.412       .  A
C1920      C1925   1.451       .  S
C1921      C1928   1.452       .  S
C1922      C1923   1.409       .  A
C1923      C1924   1.411       .  A
C1923      C1926   1.453       .  S
C1924      C1927   1.451       .  S
C1925      N1932   1.157       .  T
C1926      N1931   1.157       .  T
C1927      N1929   1.157       .  T
C1928      N1930   1.158       .  T
C1933      C1938   1.426       .  A
C1934      C1935   1.412       .  A
C1934      C1939   1.451       .  S
C1935      C1942   1.453       .  S
C1936      C1937   1.406       .  A
C1937      C1938   1.412       .  A
C1937      C1940   1.453       .  S
C1938      C1941   1.452       .  S
C1939      N1946   1.157       .  T
C1940      N1945   1.157       .  T
C1941      N1943   1.158       .  T
C1942      N1944   1.157       .  T
C1947      C1952   1.408       .  A
C1948      C1949   1.412       .  A
C1948      C1953   1.452       .  S
C1949      C1956   1.452       .  S
C1950      C1951   1.421       .  A
C1951      C1952   1.411       .  A
C1951      C1954   1.450       .  S
C1952      C1955   1.452       .  S
C1953      N1960   1.157       .  T
C1954      N1959   1.157       .  T
C1955      N1957   1.157       .  T
C1956      N1958   1.158       .  T
C1961      C1962   1.414       .  A
C1962      C1963   1.411       .  A
C1962      C1967   1.451       .  S
C1963      C1964   1.416       .  A
C1963      C1970   1.452       .  S
C1965      C1966   1.412       .  A
C1965      C1968   1.452       .  S
C1966      C1969   1.451       .  S
C1967      N1974   1.157       .  T
C1968      N1973   1.158       .  T
C1969      N1971   1.157       .  T
C1970      N1972   1.157       .  T
C1975      C1980   1.409       .  A
C1976      C1977   1.411       .  A
C1976      C1981   1.452       .  S
C1977      C1984   1.452       .  S
C1978      C1979   1.423       .  A
C1979      C1980   1.413       .  A
C1979      C1982   1.451       .  S
C1980      C1983   1.452       .  S
C1981      N1988   1.157       .  T
C1982      N1987   1.157       .  T
C1983      N1985   1.157       .  T
C1984      N1986   1.158       .  T
C1989      C1990   1.419       .  A
C1990      C1991   1.412       .  A
C1990      C1995   1.452       .  S
C1991      C1992   1.411       .  A
C1991      C1998   1.452       .  S
C1993      C1994   1.411       .  A
C1993      C1996   1.453       .  S
C1994      C1997   1.449       .  S
C1995      N2002   1.158       .  T
C1996      N2001   1.158       .  T
C1997      N1999   1.156       .  T
C1998      N2000   1.158       .  T
C2003      C2004   1.407   1_455  A
C2004      C2005   1.412       .  A
C2004      C2009   1.451       .  S
C2005      C2012   1.452       .  S
C2006      C2007   1.424       .  A
C2007      C2008   1.411       .  A
C2007      C2010   1.452       .  S
C2008      C2011   1.449       .  S
C2009      N2016   1.157       .  T
C2010      N2015   1.158       .  T
C2011      N2013   1.156       .  T
C2012      N2014   1.158       .  T
