geometry optimzed in LAMMPS
_audit_creation_date              2020-12-01 
_audit_creation_method            'lammps2cif' 
_symmetry_space_group_name_H-M    'P1' 
_symmetry_Int_Tables_number       1 
_symmetry_cell_setting            triclinic 
loop_ 
_symmetry_equiv_pos_as_xyz 
  x,y,z 
_cell_length_a                    27.93424737 
_cell_length_b                    28.53528205262286 
_cell_length_c                    29.07924796270487 
_cell_angle_alpha                 90.0497084509756 
_cell_angle_beta                  89.75719956721552 
_cell_angle_gamma                 89.75652896628702 
loop_ 
_atom_site_label 
_atom_site_type_symbol 
_atom_site_fract_x 
_atom_site_fract_y 
_atom_site_fract_z 
_atom_site_charge 
In1        In  0.74093179  0.52237781  0.01166491     1.36900
C2          C  0.78349363  0.51494234  0.92893921     0.78300
O3          O  0.75339443  0.44450867  0.02103301    -0.60200
O4          O  0.68208210  0.46855631  0.01193278    -0.51100
C5          C  0.78082699  0.51878329  0.09519097     0.70900
O6          O  0.80388135  0.52922119  0.05909680    -0.46000
C7          C  0.69161173  0.60408943  0.01578760     0.75600
O8          O  0.80379301  0.53500252  0.96227923    -0.57800
O9          O  0.67384342  0.56707041  0.99945903    -0.47900
O10         O  0.74126372  0.50249126  0.93718282    -0.54300
C11         C  0.70976296  0.43381056  0.01781192     0.85800
O12         O  0.73684651  0.51144708  0.08856814    -0.56100
O13         O  0.73451253  0.59970332  0.02796676    -0.59400
In14       In  0.46835905  0.75730936  0.00234463     1.36900
C15         C  0.46385810  0.80006025  0.91923309     0.78300
O16         O  0.53250670  0.74065195  0.04681796    -0.60200
O17         O  0.53204288  0.71203150  0.98019138    -0.51100
C18         C  0.44711333  0.82554160  0.06307998     0.70900
O19         O  0.41657731  0.80749404  0.03662207    -0.46000
C20         C  0.40163255  0.69069262  0.01990238     0.75600
O21         O  0.49591457  0.80880047  0.94826639    -0.57800
O22         O  0.42706865  0.69042393  0.98400070    -0.47900
O23         O  0.43419668  0.77012687  0.93290977    -0.54300
C24         C  0.55458765  0.71658961  0.01732223     0.85800
O25         O  0.48924919  0.81110827  0.05624385    -0.56100
O26         O  0.41236715  0.72290741  0.04743465    -0.59400
In27       In  0.98414730  0.51146436  0.75109209     1.36900
C28         C  0.06282144  0.48568944  0.80014514     0.78300
O29         O  0.99797869  0.46083558  0.69211972    -0.60200
O30         O  0.92757593  0.48649956  0.70208326    -0.51100
C31         C  0.90767952  0.49882632  0.80604909     0.70900
O32         O  0.92420628  0.53860633  0.79634046    -0.46000
C33         C  0.99565080  0.59564766  0.71144673     0.75600
O34         O  0.04295696  0.52506461  0.80548366    -0.57800
O35         O  0.01691992  0.55933153  0.69724136    -0.47900
O36         O  0.04224523  0.46049505  0.77087373    -0.54300
C37         C  0.95469662  0.45907602  0.68010460     0.85800
O38         O  0.93165111  0.46525838  0.78955317    -0.56100
O39         O  0.97038346  0.58915820  0.74672599    -0.59400
In40       In  0.50141457  0.99892840  0.75044970     1.36900
C41         C  0.58161580  0.97806439  0.70210257     0.78300
O42         O  0.49671366  0.07762429  0.75446647    -0.60200
O43         O  0.52431907  0.04278254  0.81232721    -0.51100
C44         C  0.41413023  0.00796581  0.71244977     0.70900
O45         O  0.45226327  0.01113831  0.68903810    -0.46000
C46         C  0.48281278  0.91826772  0.79420987     0.75600
O47         O  0.55293226  0.00996064  0.69048535    -0.57800
O48         O  0.50529469  0.95151150  0.81320944    -0.47900
O49         O  0.56946170  0.95738539  0.73825387    -0.54300
C50         C  0.51217101  0.08130959  0.79471333     0.85800
O51         O  0.42080260  0.00075616  0.75472701    -0.56100
O52         O  0.47051254  0.92633801  0.75320048    -0.59400
In53       In  0.74389248  0.97181813  0.49312762     1.36900
C54         C  0.69326548  0.96073306  0.41432398     0.78300
O55         O  0.73964341  0.04676439  0.51717871    -0.60200
O56         O  0.80447834  0.02562251  0.48532260    -0.51100
C57         C  0.70185201  0.96736255  0.57587366     0.70900
O58         O  0.68022072  0.98289933  0.54079553    -0.46000
C59         C  0.79635799  0.89234925  0.49669870     0.75600
O60         O  0.68753385  0.93616534  0.44970261    -0.57800
O61         O  0.81265890  0.92940796  0.47854946    -0.47900
O62         O  0.72367542  0.99269905  0.41930031    -0.54300
C63         C  0.78145091  0.05811125  0.50542911     0.85800
O64         O  0.74486652  0.95578636  0.56880076    -0.56100
O65         O  0.75428608  0.89634821  0.51152385    -0.59400
In66       In  0.02393997  0.74957038  0.50186170     1.36900
C67         C  0.02189587  0.70819962  0.41902407     0.78300
O68         O  0.94377876  0.73801953  0.50604743    -0.60200
O69         O  0.96951251  0.80750703  0.49949918    -0.51100
C70         C  0.01725799  0.71259767  0.58635738     0.70900
O71         O  0.03374337  0.68946669  0.55259161    -0.46000
C72         C  0.10451441  0.80082787  0.50879438     0.75600
O73         O  0.03336501  0.68601396  0.45493114    -0.57800
O74         O  0.06610589  0.81733579  0.49288793    -0.47900
O75         O  0.01490643  0.75123697  0.42534760    -0.54300
C76         C  0.93355538  0.78102388  0.50308659     0.85800
O77         O  0.00658670  0.75450515  0.57703562    -0.56100
O78         O  0.10243000  0.75790942  0.51858324    -0.59400
In79       In  0.24412418  0.47017068  0.99873294     1.36900
C80         C  0.28948855  0.55261573  0.01328245     0.78300
O81         O  0.20714825  0.42967564  0.94177458    -0.60200
O82         O  0.20273730  0.50274594  0.93786538    -0.51100
C83         C  0.29803318  0.39197599  0.00385708     0.70900
O84         O  0.31364391  0.42911394  0.98519140    -0.46000
C85         C  0.19514562  0.46255022  0.07817832     0.75600
O86         O  0.30351367  0.52427533  0.98244363    -0.57800
O87         O  0.17623562  0.47850965  0.04186057    -0.47900
O88         O  0.25339364  0.53866855  0.03511187    -0.54300
C89         C  0.19150700  0.46426771  0.91980947     0.85800
O90         O  0.25566063  0.39513695  0.01821598    -0.56100
O91         O  0.23842148  0.45098917  0.07370197    -0.59400
N92         N  0.10026617  0.70456672  0.99681437    -0.35900
N93         N  0.02673794  0.71242564  0.92275227    -0.56500
N94         N  0.95169851  0.71472674  0.99557545    -0.35900
N95         N  0.02248006  0.70657827  0.06920956    -0.56500
C96         C  0.12747805  0.69470028  0.95926608     0.27600
C97         C  0.12413438  0.68784317  0.03389848     0.27600
C98         C  0.92428023  0.71133639  0.95754787     0.27600
C99         C  0.92231567  0.71046305  0.03250785     0.27600
C100        C  0.06513097  0.69970562  0.89688109     0.36300
C101        C  0.98724207  0.70494352  0.89672172     0.36300
C102        C  0.06019058  0.69240619  0.09469480     0.36300
C103        C  0.98272351  0.69727798  0.09424934     0.36300
C104        C  0.17192975  0.67842752  0.97368587    -0.21200
C105        C  0.16944066  0.67325821  0.02050433    -0.21200
C106        C  0.87642628  0.71090532  0.97076651    -0.21200
C107        C  0.87525137  0.71055078  0.01795004    -0.21200
C108        C  0.04972951  0.68944220  0.85260854    -0.22300
C109        C  0.00083009  0.69276854  0.85258065    -0.22300
C110        C  0.04458018  0.67976894  0.13823079    -0.22300
C111        C  0.99575219  0.68229487  0.13784706    -0.22300
C112        C  0.10875248  0.68204341  0.91552591    -0.17600
C113        C  0.10235350  0.67299342  0.07544102    -0.17600
C114        C  0.93652250  0.69115177  0.07514347    -0.17600
C115        C  0.94144978  0.69376972  0.91489300    -0.17600
H116        H  0.20022885  0.66440515  0.95205202     0.15300
H117        H  0.19591691  0.65563727  0.04143574     0.15300
H118        H  0.84539299  0.70642455  0.94927960     0.15300
H119        H  0.84373363  0.70458325  0.03890494     0.15300
H120        H  0.07037554  0.67550497  0.82434282     0.13600
H121        H  0.97765305  0.68155210  0.82495379     0.13600
H122        H  0.06573501  0.66384078  0.16519747     0.13600
H123        H  0.97301502  0.66996396  0.16536024     0.13600
H124        H  0.06473889  0.71423428  0.99648181     0.26800
H125        H  0.98790380  0.70830040  0.99587004     0.26800
N126        N  0.84609760  0.52236461  0.86577656    -0.02800
C127        C  0.86363156  0.49196754  0.83386936    -0.00200
C128        C  0.83521116  0.45253200  0.83195199    -0.23100
C129        C  0.79948072  0.45873218  0.86433731    -0.23300
C130        C  0.80774779  0.50137529  0.88556585    -0.00300
H131        H  0.84047977  0.42211226  0.81023534     0.13500
H132        H  0.77240948  0.43334419  0.87360071     0.13500
In133      In  0.99398684  0.50407550  0.25279845     1.36900
C134        C  0.07424270  0.48199691  0.20410660     0.78300
O135        O  0.99040067  0.58320918  0.25564002    -0.60200
O136        O  0.01466876  0.54873817  0.31512033    -0.51100
C137        C  0.90631133  0.51045697  0.21544022     0.70900
O138        O  0.94421573  0.51699958  0.19248176    -0.46000
C139        C  0.97436493  0.42367293  0.29676314     0.75600
O140        O  0.04310347  0.51016527  0.18933395    -0.57800
O141        O  0.99490003  0.45777756  0.31626108    -0.47900
O142        O  0.06495614  0.46659790  0.24352691    -0.54300
C143        C  0.00428650  0.58723905  0.29642665     0.85800
O144        O  0.91316877  0.50216071  0.25745550    -0.56100
O145        O  0.96531692  0.43030276  0.25473728    -0.59400
N146        N  0.84448845  0.53187350  0.15617651    -0.02800
C147        C  0.85820021  0.50846238  0.19437708    -0.00200
C148        C  0.82441172  0.47490091  0.20518643    -0.23100
C149        C  0.78982756  0.47691744  0.17130594    -0.23300
C150        C  0.80362947  0.51159347  0.14087286    -0.00300
H151        H  0.82658152  0.44922228  0.23247318     0.13500
H152        H  0.75990107  0.45328549  0.16748680     0.13500
N153        N  0.13108408  0.49076024  0.85894579    -0.02800
C154        C  0.16151162  0.45859941  0.87767688    -0.00200
C155        C  0.15627997  0.41619118  0.85529421    -0.23100
C156        C  0.12124249  0.42229274  0.82257164    -0.23300
C157        C  0.10550449  0.46821166  0.82587918    -0.00300
H158        H  0.17460263  0.38369013  0.86310713     0.13500
H159        H  0.10714397  0.39533738  0.80025459     0.13500
N160        N  0.58332863  0.52024468  0.79653321    -0.35900
N161        N  0.49771817  0.58196756  0.79829810    -0.56500
N162        N  0.42903900  0.50240732  0.79670316    -0.35900
N163        N  0.51484526  0.44083163  0.80237309    -0.56500
C164        C  0.60407120  0.56141876  0.80829224     0.27600
C165        C  0.61331144  0.48566049  0.81065060     0.27600
C166        C  0.39929424  0.53766387  0.80957647     0.27600
C167        C  0.40824809  0.46219717  0.81116892     0.27600
C168        C  0.53282391  0.61423886  0.80126430     0.36300
C169        C  0.45573315  0.60502747  0.80352171     0.36300
C170        C  0.55666834  0.41789604  0.80879381     0.36300
C171        C  0.47961494  0.40895293  0.80764772     0.36300
C172        C  0.65039433  0.55276200  0.82328519    -0.21200
C173        C  0.65629356  0.50505290  0.82450446    -0.21200
C174        C  0.35654457  0.51915195  0.82571842    -0.21200
C175        C  0.36218293  0.47157493  0.82670465    -0.21200
C176        C  0.51268687  0.65849761  0.80596561    -0.22300
C177        C  0.46403347  0.65261452  0.80771207    -0.22300
C178        C  0.54779047  0.37045270  0.81489590    -0.22300
C179        C  0.49923442  0.36488008  0.81416949    -0.22300
C180        C  0.57896700  0.60370353  0.81802276    -0.17600
C181        C  0.59879987  0.44012048  0.82423860    -0.17600
C182        C  0.43301395  0.42049434  0.82256251    -0.17600
C183        C  0.41392119  0.58372261  0.82050912    -0.17600
H184        H  0.67550216  0.57776052  0.83706533     0.15300
H185        H  0.68637583  0.48681141  0.83972140     0.15300
H186        H  0.32676764  0.53818739  0.84081025     0.15300
H187        H  0.33742610  0.44725772  0.84248264     0.15300
H188        H  0.53140558  0.69072546  0.81356705     0.13600
H189        H  0.43806757  0.67948696  0.81644405     0.13600
H190        H  0.57305427  0.34308314  0.82339389     0.13600
H191        H  0.48034812  0.33297235  0.82273623     0.13600
H192        H  0.54808183  0.51586220  0.78658913     0.26800
H193        H  0.46411157  0.50604561  0.78557650     0.26800
N194        N  0.62561149  0.66315991  0.00031241    -0.02800
C195        C  0.60220485  0.69516702  0.02681405    -0.00200
C196        C  0.62691572  0.70145030  0.06745758    -0.23100
C197        C  0.66597056  0.67160731  0.06603909    -0.23300
C198        C  0.66367002  0.64755424  0.02480257    -0.00300
H199        H  0.61638155  0.72347278  0.09608069     0.13500
H200        H  0.69095737  0.66539473  0.09374013     0.13500
In201      In  0.52311561  0.24376896  0.00217146     1.36900
C202        C  0.60435204  0.29406167  0.00897238     0.78300
O203        O  0.50861884  0.24910142  0.07837597    -0.60200
O204        O  0.52495206  0.18186384  0.05134058    -0.51100
C205        C  0.43383197  0.27832091  0.00410341     0.70900
O206        O  0.46993324  0.30348487  0.99552640    -0.46000
C207        C  0.52310127  0.20128736  0.91934762     0.75600
O208        O  0.56576406  0.31101144  0.99399752    -0.57800
O209        O  0.53873523  0.18080035  0.95474517    -0.47900
O210        O  0.60194407  0.25121480  0.01895158    -0.54300
C211        C  0.51293115  0.20582524  0.08623636     0.85800
O212        O  0.44326672  0.23551152  0.01017081    -0.56100
O213        O  0.50998751  0.24281069  0.92639239    -0.59400
N214        N  0.72221965  0.04419470  0.01174135    -0.35900
N215        N  0.71164471  0.96720795  0.94377438    -0.56500
N216        N  0.69564069  0.89462781  0.01568471    -0.35900
N217        N  0.70181538  0.97197167  0.08317449    -0.56500
C218        C  0.71393132  0.06944156  0.97306309     0.27600
C219        C  0.71004842  0.07217207  0.04769949     0.27600
C220        C  0.67989097  0.87140700  0.97804015     0.27600
C221        C  0.67510676  0.87371153  0.05263353     0.27600
C222        C  0.71574183  0.00440176  0.91539506     0.36300
C223        C  0.70066100  0.92989592  0.91730130     0.36300
C224        C  0.70100787  0.01131576  0.10899368     0.36300
C225        C  0.68994182  0.93596578  0.11109134     0.36300
C226        C  0.70339451  0.11545997  0.98501815    -0.21200
C227        C  0.70147062  0.11727448  0.03199723    -0.21200
C228        C  0.65542100  0.83157625  0.99156022    -0.21200
C229        C  0.65213483  0.83315711  0.03847652    -0.21200
C230        C  0.71122870  0.98977379  0.87017874    -0.22300
C231        C  0.70130737  0.94282324  0.87140063    -0.22300
C232        C  0.69133102  0.99976778  0.15436329    -0.22300
C233        C  0.68453915  0.95224676  0.15570627    -0.22300
C234        C  0.70389762  0.05042687  0.92906683    -0.17600
C235        C  0.69197308  0.05618826  0.09050593    -0.17600
C236        C  0.66536188  0.89600866  0.09529871    -0.17600
C237        C  0.67439762  0.89126651  0.93376878    -0.17600
H238        H  0.69289668  0.14377035  0.96250503     0.15300
H239        H  0.68858853  0.14682917  0.05197084     0.15300
H240        H  0.63663346  0.80715988  0.96962191     0.15300
H241        H  0.63050911  0.80977828  0.05894997     0.15300
H242        H  0.70860230  0.01194182  0.84007926     0.13600
H243        H  0.69030566  0.92194284  0.84226073     0.13600
H244        H  0.68462905  0.02355679  0.18261746     0.13600
H245        H  0.67074105  0.93282406  0.18483073     0.13600
H246        H  0.72844922  0.00840084  0.01331641     0.26800
H247        H  0.71297913  0.92664394  0.01558612     0.26800
N248        N  0.49007875  0.85557103  0.85561388    -0.02800
C249        C  0.46840603  0.87473063  0.81843779    -0.00200
C250        C  0.42518411  0.85258386  0.81102397    -0.23100
C251        C  0.41942699  0.82039239  0.84609130    -0.23300
C252        C  0.45937742  0.82374729  0.87381268    -0.00300
H253        H  0.39901687  0.86124693  0.78500812     0.13500
H254        H  0.38818583  0.79892516  0.85213299     0.13500
In255      In  0.48231389  0.00554562  0.25435429     1.36900
C256        C  0.49048408  0.08877009  0.21157374     0.78300
O257        O  0.42287439  0.96499907  0.28953930    -0.60200
O258        O  0.42880620  0.03655561  0.30550955    -0.51100
C259        C  0.45447586  0.94775899  0.18697914     0.70900
O260        O  0.49748337  0.95049008  0.19982347    -0.46000
C261        C  0.56319233  0.97883257  0.29969158     0.75600
O262        O  0.50905871  0.05167063  0.19573637    -0.57800
O263        O  0.55179716  0.02127278  0.29501620    -0.47900
O264        O  0.46920166  0.08338390  0.24939909    -0.54300
C265        C  0.40508382  0.99945686  0.31053421     0.85800
O266        O  0.42701684  0.97734623  0.20568680    -0.56100
O267        O  0.53270681  0.95135566  0.28335842    -0.59400
N268        N  0.46397797  0.88285837  0.12793858    -0.02800
C269        C  0.43360331  0.85924038  0.09995008    -0.00200
C270        C  0.38686602  0.87213742  0.10981260    -0.23100
C271        C  0.38879792  0.90568538  0.14396399    -0.23300
C272        C  0.43663524  0.91218081  0.15397137    -0.00300
H273        H  0.35484496  0.85947618  0.09316766     0.13500
H274        H  0.35863430  0.92418572  0.15895001     0.13500
N275        N  0.53363757  0.13687392  0.85961865    -0.02800
C276        C  0.51599115  0.17883322  0.87390988    -0.00200
C277        C  0.48328328  0.19562304  0.84230794    -0.23100
C278        C  0.48035671  0.16268076  0.80785003    -0.23300
C279        C  0.51120712  0.12665581  0.81953412    -0.00300
H280        H  0.46196769  0.22727693  0.84515021     0.13500
H281        H  0.45635480  0.16375983  0.77873239     0.13500
N282        N  0.21513967  0.54005759  0.51228680    -0.35900
N283        N  0.20111520  0.46680453  0.44266574    -0.56500
N284        N  0.19094787  0.39161513  0.51308149    -0.35900
N285        N  0.20081376  0.46668905  0.58303873    -0.56500
C286        C  0.20719483  0.56725244  0.47497481     0.27600
C287        C  0.20631296  0.56728401  0.54942495     0.27600
C288        C  0.17191223  0.37000240  0.47598108     0.27600
C289        C  0.17372286  0.36914102  0.55068721     0.27600
C290        C  0.20200667  0.50488919  0.41520926     0.36300
C291        C  0.19053053  0.42992138  0.41563974     0.36300
C292        C  0.19894406  0.50528491  0.60978497     0.36300
C293        C  0.19037948  0.42967988  0.61016706     0.36300
C294        C  0.20021016  0.61335109  0.48858046    -0.21200
C295        C  0.19973202  0.61339967  0.53559135    -0.21200
C296        C  0.14778788  0.33003595  0.48993148    -0.21200
C297        C  0.14911801  0.32939191  0.53698240    -0.21200
C298        C  0.19474523  0.49177844  0.36995272    -0.22300
C299        C  0.18782689  0.44431669  0.37015271    -0.22300
C300        C  0.19004940  0.49260282  0.65492606    -0.22300
C301        C  0.18514545  0.44479936  0.65525811    -0.22300
C302        C  0.19351664  0.55066173  0.43125806    -0.17600
C303        C  0.19056493  0.55072863  0.59265353    -0.17600
C304        C  0.16473936  0.39082841  0.59364632    -0.17600
C305        C  0.16604259  0.39021475  0.43192070    -0.17600
H306        H  0.19083461  0.64284545  0.46696869     0.15300
H307        H  0.18975050  0.64295274  0.55700530     0.15300
H308        H  0.12700714  0.30654525  0.46872154     0.15300
H309        H  0.12877678  0.30592047  0.55871428     0.15300
H310        H  0.18965980  0.51471894  0.34073122     0.13600
H311        H  0.17591490  0.42372985  0.34110755     0.13600
H312        H  0.18270127  0.51578494  0.68359773     0.13600
H313        H  0.17207229  0.42435757  0.68400527     0.13600
H314        H  0.21909464  0.50401965  0.51248268     0.26800
H315        H  0.20870068  0.42341560  0.51290792     0.26800
N316        N  0.02274527  0.65080085  0.64895114    -0.02800
C317        C  0.99692065  0.64133080  0.68732526    -0.00200
C318        C  0.96513713  0.67756237  0.69593004    -0.23100
C319        C  0.97135272  0.70985393  0.66110295    -0.23300
C320        C  0.00660205  0.69224645  0.63221223    -0.00300
H321        H  0.93838530  0.67910473  0.72292751     0.13500
H322        H  0.95025677  0.74128765  0.65588731     0.13500
N323        N  0.60317850  0.19893154  0.49946735    -0.35900
N324        N  0.52638147  0.21137063  0.57153090    -0.56500
N325        N  0.45855686  0.21024464  0.49662871    -0.35900
N326        N  0.53245563  0.20641227  0.42430387    -0.56500
C327        C  0.62700366  0.18651484  0.53817336     0.27600
C328        C  0.63048977  0.18540503  0.46295359     0.27600
C329        C  0.42879123  0.21307721  0.53333189     0.27600
C330        C  0.43144923  0.21190926  0.45835350     0.27600
C331        C  0.56373770  0.19926501  0.59846374     0.36300
C332        C  0.48622828  0.20513932  0.59701783     0.36300
C333        C  0.57015090  0.19045589  0.39937294     0.36300
C334        C  0.49315923  0.20165899  0.39762206     0.36300
C335        C  0.67237623  0.17083966  0.52599302    -0.21200
C336        C  0.67476370  0.17056210  0.47878346    -0.21200
C337        C  0.38221764  0.21868180  0.51834703    -0.21200
C338        C  0.38383888  0.21808998  0.47104318    -0.21200
C339        C  0.54760656  0.19178867  0.64301028    -0.22300
C340        C  0.49867722  0.19486995  0.64202815    -0.22300
C341        C  0.55505774  0.18091345  0.35478587    -0.22300
C342        C  0.50654899  0.18798376  0.35378994    -0.22300
C343        C  0.60501443  0.17620552  0.58123455    -0.17600
C344        C  0.61232341  0.17127459  0.41939538    -0.17600
C345        C  0.44669548  0.19384814  0.41543982    -0.17600
C346        C  0.44067587  0.19646358  0.57745518    -0.17600
H347        H  0.69909975  0.15606848  0.54839294     0.15300
H348        H  0.70297244  0.15439634  0.45860065     0.15300
H349        H  0.35012133  0.21837534  0.53933620     0.15300
H350        H  0.35284996  0.21811026  0.44897717     0.15300
H351        H  0.56832948  0.17830116  0.67151113     0.13600
H352        H  0.47553202  0.18575813  0.67041302     0.13600
H353        H  0.57531470  0.16594330  0.32671257     0.13600
H354        H  0.48306480  0.17831569  0.32583284     0.13600
H355        H  0.56758637  0.20851894  0.49831532     0.26800
H356        H  0.49244882  0.19551899  0.49762503     0.26800
N357        N  0.64568635  0.98837652  0.64087021    -0.02800
C358        C  0.62447402  0.96374862  0.67516335    -0.00200
C359        C  0.64572188  0.92001486  0.67852242    -0.23100
C360        C  0.67979086  0.91738707  0.64401671    -0.23300
C361        C  0.67817536  0.95957533  0.62074787    -0.00300
H362        H  0.63565023  0.89204561  0.70170090     0.13500
H363        H  0.70089396  0.88684432  0.63490290     0.13500
In364      In  0.23834564  0.02998970  0.51633005     1.36900
C365        C  0.27976873  0.02247525  0.43255369     0.78300
O366        O  0.25095453  0.95178618  0.52313194    -0.60200
O367        O  0.17932125  0.97672423  0.52226920    -0.51100
C368        C  0.28272349  0.02604844  0.59801700     0.70900
O369        O  0.30374578  0.03794903  0.56123805    -0.46000
C370        C  0.18436219  0.10904014  0.52118882     0.75600
O371        O  0.30019445  0.04324256  0.46540902    -0.57800
O372        O  0.16924181  0.07158590  0.50351997    -0.47900
O373        O  0.23776560  0.00978475  0.44165422    -0.54300
C374        C  0.20710134  0.94165834  0.52440753     0.85800
O375        O  0.23853905  0.01860341  0.59321917    -0.56100
O376        O  0.22726409  0.10673000  0.53399989    -0.59400
N377        N  0.09391869  0.02554389  0.29541374    -0.35900
N378        N  0.02760952  0.94254595  0.30003306    -0.56500
N379        N  0.94036948  0.00014337  0.29831059    -0.35900
N380        N  0.00448732  0.08305151  0.29845992    -0.56500
C381        C  0.12454108  0.99183706  0.31036989     0.27600
C382        C  0.11180463  0.06715581  0.30997551     0.27600
C383        C  0.92098768  0.95883181  0.31164396     0.27600
C384        C  0.90872932  0.03406545  0.31048284     0.27600
C385        C  0.07095530  0.92191157  0.30457937     0.36300
C386        C  0.99420439  0.90855776  0.30466678     0.36300
C387        C  0.03833042  0.11667786  0.30061454     0.36300
C388        C  0.96181338  0.10409534  0.30640836     0.36300
C389        C  0.16557768  0.01258752  0.32732642    -0.21200
C390        C  0.15738577  0.05989880  0.32761005    -0.21200
C391        C  0.87396278  0.96648575  0.32570867    -0.21200
C392        C  0.86623631  0.01377478  0.32464000    -0.21200
C393        C  0.06484433  0.87375858  0.30811498    -0.22300
C394        C  0.01651869  0.86540957  0.30828046    -0.22300
C395        C  0.01621119  0.16001940  0.30606632    -0.22300
C396        C  0.96807847  0.15192764  0.31073336    -0.22300
C397        C  0.11115481  0.94562541  0.32277281    -0.17600
C398        C  0.08410166  0.10802505  0.31937455    -0.17600
C399        C  0.92119960  0.08026730  0.32315405    -0.17600
C400        C  0.94705337  0.91701082  0.32085721    -0.17600
H401        H  0.19521687  0.99519471  0.34411452     0.15300
H402        H  0.18027570  0.08501852  0.34427955     0.15300
H403        H  0.84878496  0.94162677  0.33964640     0.15300
H404        H  0.83501330  0.03154441  0.33848938     0.15300
H405        H  0.09193482  0.84755737  0.31480614     0.13600
H406        H  0.99969917  0.83213231  0.31571246     0.13600
H407        H  0.03372641  0.19294645  0.31349009     0.13600
H408        H  0.94148397  0.17767682  0.32079993     0.13600
H409        H  0.05954984  0.01986322  0.28328586     0.26800
H410        H  0.97543629  0.00562249  0.28814583     0.26800
N411        N  0.86569688  0.83621638  0.48337943    -0.02800
C412        C  0.88387219  0.79917405  0.50684662    -0.00200
C413        C  0.85200085  0.78565575  0.54068567    -0.23100
C414        C  0.81405765  0.81688262  0.53893903    -0.23300
C415        C  0.82398842  0.84841370  0.50399540    -0.00300
H416        H  0.85726790  0.75832559  0.56596865     0.13500
H417        H  0.78409202  0.81823518  0.56262295     0.13500
In418      In  0.95945947  0.26158499  0.50292746     1.36900
C419        C  0.95396844  0.30399810  0.42032267     0.78300
O420        O  0.01523372  0.23245882  0.55110365    -0.60200
O421        O  0.02804531  0.22375101  0.48016297    -0.51100
C422        C  0.94209251  0.33384271  0.55984535     0.70900
O423        O  0.98373432  0.31836975  0.55248872    -0.46000
C424        C  0.89025207  0.19733485  0.51715545     0.75600
O425        O  0.98670393  0.31232356  0.44882527    -0.57800
O426        O  0.91625361  0.19754455  0.48158934    -0.47900
O427        O  0.92446192  0.27378350  0.43386341    -0.54300
C428        C  0.04347147  0.21788644  0.52041974     0.85800
O429        O  0.91016270  0.31391771  0.53655816    -0.56100
O430        O  0.90151238  0.22804177  0.54621441    -0.59400
N431        N  0.83575882  0.12959471  0.49617198    -0.02800
C432        C  0.84977209  0.16445931  0.52485547    -0.00200
C433        C  0.82243489  0.16327324  0.56459349    -0.23100
C434        C  0.79219022  0.12533910  0.56068601    -0.23300
C435        C  0.80190866  0.10433409  0.51878873    -0.00300
H436        H  0.82545438  0.18621894  0.59407698     0.13500
H437        H  0.76763849  0.11292514  0.58676235     0.13500
N438        N  0.15979269  0.87062707  0.50008852    -0.02800
C439        C  0.18976190  0.89286376  0.52943462    -0.00200
C440        C  0.19759537  0.86536677  0.56770595    -0.23100
C441        C  0.17015443  0.82555872  0.56218523    -0.23300
C442        C  0.14644950  0.83003135  0.52068787    -0.00300
H443        H  0.21837835  0.87455698  0.59768699     0.13500
H444        H  0.16494296  0.79828847  0.58754604     0.13500
N445        N  0.35079414  0.03398753  0.65558775    -0.02800
C446        C  0.36552333  0.00827328  0.69211376    -0.00200
C447        C  0.33061130  0.97612237  0.70364375    -0.23100
C448        C  0.29413033  0.98135518  0.67207957    -0.23300
C449        C  0.30788287  0.01649409  0.64215189    -0.00300
H450        H  0.33281455  0.94956869  0.73010898     0.13500
H451        H  0.26263749  0.95958177  0.66935255     0.13500
N452        N  0.96190668  0.39462843  0.62048364    -0.02800
C453        C  0.93594544  0.42611876  0.64524188    -0.00200
C454        C  0.88786571  0.42154234  0.63513267    -0.23100
C455        C  0.88439081  0.38665491  0.60250351    -0.23300
C456        C  0.93044742  0.37106803  0.59366406    -0.00300
H457        H  0.85844924  0.44134049  0.64988788     0.13500
H458        H  0.85178077  0.37424764  0.58674388     0.13500
N459        N  0.11639439  0.16614897  0.50518416    -0.02800
C460        C  0.09039551  0.19606200  0.53188846    -0.00200
C461        C  0.11197440  0.20037337  0.57438207    -0.23100
C462        C  0.15204682  0.17186700  0.57371854    -0.23300
C463        C  0.15344617  0.15040739  0.53108447    -0.00300
H464        H  0.09908476  0.22073951  0.60334443     0.13500
H465        H  0.17550308  0.16491556  0.60246381     0.13500
N466        N  0.63875973  0.98504735  0.34893456    -0.02800
C467        C  0.60767414  0.96089745  0.32194326    -0.00200
C468        C  0.61798444  0.91346645  0.32447192    -0.23100
C469        C  0.65414687  0.90809783  0.35609852    -0.23300
C470        C  0.66566401  0.95240287  0.37137861    -0.00300
H471        H  0.59839403  0.88533294  0.30826030     0.13500
H472        H  0.66774778  0.87519579  0.36927236     0.13500
N473        N  0.02705332  0.64257267  0.36069666    -0.02800
C474        C  0.00467275  0.63305239  0.32052433    -0.00200
C475        C  0.97662064  0.67090374  0.30776485    -0.23100
C476        C  0.98168598  0.70442182  0.34163695    -0.23300
C477        C  0.01270443  0.68594373  0.37390358    -0.00300
H478        H  0.95335993  0.67314285  0.27816331     0.13500
H479        H  0.96302473  0.73770333  0.34354906     0.13500
N480        N  0.65817728  0.36397836  0.99744729    -0.02800
C481        C  0.69252382  0.38485008  0.02308394    -0.00200
C482        C  0.70568614  0.35548695  0.05864999    -0.23100
C483        C  0.67697430  0.31619027  0.05556323    -0.23300
C484        C  0.64743314  0.32272962  0.01800960    -0.00300
H485        H  0.73113490  0.36304247  0.08558486     0.13500
H486        H  0.67549640  0.28765425  0.08000973     0.13500
N487        N  0.51804892  0.14528162  0.15017187    -0.02800
C488        C  0.50002102  0.18515352  0.13157356    -0.00200
C489        C  0.46210549  0.20093483  0.15821584    -0.23100
C490        C  0.45589863  0.16866707  0.19319169    -0.23300
C491        C  0.49028343  0.13421232  0.18683097    -0.00300
H492        H  0.43947598  0.23098105  0.15135015     0.13500
H493        H  0.42751872  0.16887587  0.21864367     0.13500
N494        N  0.34724328  0.62138916  0.00246526    -0.02800
C495        C  0.36225726  0.65699363  0.02984530    -0.00200
C496        C  0.33624375  0.65682301  0.07038494    -0.23100
C497        C  0.30520635  0.61940418  0.06799575    -0.23300
C498        C  0.31318907  0.59748181  0.02615500    -0.00300
H499        H  0.34004139  0.68068671  0.09906709     0.13500
H500        H  0.28052601  0.60849608  0.09466675     0.13500
N501        N  0.13655706  0.48637131  0.14016043    -0.02800
C502        C  0.16898102  0.45617092  0.12212531    -0.00200
C503        C  0.17178246  0.41657941  0.14932904    -0.23100
C504        C  0.13833008  0.42226960  0.18416030    -0.23300
C505        C  0.11639650  0.46526414  0.17720471    -0.00300
H506        H  0.19408486  0.38604719  0.14342377     0.13500
H507        H  0.12959470  0.39689250  0.21049738     0.13500
N508        N  0.97867721  0.36252350  0.35969832    -0.02800
C509        C  0.95847555  0.38090950  0.32146895    -0.00200
C510        C  0.91624252  0.35762437  0.31220784    -0.23100
C511        C  0.91010790  0.32473701  0.34668297    -0.23300
C512        C  0.94901117  0.32875426  0.37566336    -0.00300
H513        H  0.89131102  0.36532448  0.28482241     0.13500
H514        H  0.87968153  0.30178563  0.35103640     0.13500
N515        N  0.34343876  0.02710986  0.36953336    -0.02800
C516        C  0.35978838  0.99595496  0.33765214    -0.00200
C517        C  0.32887956  0.95838495  0.33509856    -0.23100
C518        C  0.29328179  0.96624351  0.36727335    -0.23300
C519        C  0.30366636  0.00818641  0.38894785    -0.00300
H520        H  0.33263015  0.92777837  0.31335820     0.13500
H521        H  0.26484864  0.94218030  0.37616761     0.13500
N522        N  0.36678427  0.33561735  0.98882208    -0.02800
C523        C  0.32662849  0.34869817  0.01163674    -0.00200
C524        C  0.31777588  0.31713311  0.04676658    -0.23100
C525        C  0.35488347  0.28486768  0.04614778    -0.23300
C526        C  0.38508413  0.29775248  0.01063299    -0.00300
H527        H  0.28887148  0.31870585  0.07162264     0.13500
H528        H  0.36072614  0.25701902  0.07076342     0.13500
C529        C  0.09168548  0.12984746  0.36562084    -0.05500
C530        C  0.05924110  0.11686375  0.40039245    -0.16600
C531        C  0.06694175  0.12774006  0.44629726     0.11700
C532        C  0.10731296  0.15404464  0.45823094    -0.05400
C533        C  0.13842151  0.17013224  0.42351926    -0.16600
C534        C  0.13052171  0.15898743  0.37709483     0.11800
S535        S  0.02482808  0.10555089  0.48807547    -0.31600
S536        S  0.17025122  0.18330652  0.33441804    -0.31600
H537        H  0.13957359  0.17733910  0.29670748     0.29800
H538        H  0.05705156  0.10272797  0.52493287     0.29800
H539        H  0.02857728  0.09585297  0.39191114     0.20400
H540        H  0.16862041  0.19183080  0.43276805     0.20400
C541        C  0.14759743  0.88716561  0.45500987    -0.05500
C542        C  0.12237448  0.92900332  0.45194689    -0.16600
C543        C  0.11496570  0.95104982  0.41008071     0.11700
C544        C  0.12857561  0.92824399  0.36847519    -0.05400
C545        C  0.15537658  0.88655105  0.37147686    -0.16600
C546        C  0.16584673  0.86627917  0.41435366     0.11800
S547        S  0.08740251  0.00800324  0.41442493    -0.31600
S548        S  0.20285462  0.81441785  0.41478393    -0.31600
H549        H  0.22229017  0.82124136  0.45872642     0.29800
H550        H  0.06034666  0.00559810  0.37436623     0.29800
H551        H  0.10854057  0.94501945  0.48306821     0.20400
H552        H  0.16832005  0.86985121  0.34032769     0.20400
C553        C  0.85625677  0.11917128  0.45223790    -0.05500
C554        C  0.89157798  0.08506066  0.45061851    -0.16600
C555        C  0.91395989  0.07331197  0.40961151     0.11700
C556        C  0.90113499  0.09647175  0.36817408    -0.05400
C557        C  0.86602337  0.13177957  0.36989930    -0.16600
C558        C  0.84356561  0.14365583  0.41170821     0.11800
S559        S  0.95633037  0.02618813  0.41386836    -0.31600
S560        S  0.79924912  0.18982506  0.41067927    -0.31600
H561        H  0.78388274  0.18680005  0.45650788     0.29800
H562        H  0.98138735  0.03461092  0.37318992     0.29800
H563        H  0.90152571  0.06718068  0.48206859     0.20400
H564        H  0.85545830  0.14940478  0.33853548     0.20400
C565        C  0.88500989  0.85491830  0.44168239    -0.05500
C566        C  0.92695947  0.88013421  0.44443140    -0.16600
C567        C  0.95076196  0.89442366  0.40516726     0.11700
C568        C  0.92979538  0.88869502  0.36115458    -0.05400
C569        C  0.88747658  0.86236077  0.35821197    -0.16600
C570        C  0.86538178  0.84464970  0.39808991     0.11800
S571        S  0.00940864  0.91585914  0.41513955    -0.31600
S572        S  0.81202706  0.81019572  0.39156946    -0.31600
H573        H  0.82066558  0.78077863  0.42940154     0.29800
H574        H  0.00528174  0.95130749  0.38293491     0.29800
H575        H  0.94212436  0.88747353  0.47789880     0.20400
H576        H  0.87098439  0.85680956  0.32500973     0.20400
C577        C  0.36693099  0.06973862  0.38191093    -0.05500
C578        C  0.41350353  0.06631350  0.39808550    -0.16600
C579        C  0.44119711  0.10594286  0.40521682     0.11700
C580        C  0.42088847  0.15119520  0.39884721    -0.05400
C581        C  0.37398092  0.15463948  0.38187127    -0.16600
C582        C  0.34684107  0.11433003  0.37313172     0.11800
S583        S  0.50128895  0.09701840  0.42567649    -0.31600
S584        S  0.28721061  0.12216598  0.35095808    -0.31600
H585        H  0.28387843  0.07882007  0.32834053     0.29800
H586        H  0.50139066  0.04776452  0.42721107     0.29800
H587        H  0.42835626  0.03175522  0.40400382     0.20400
H588        H  0.35842933  0.18880903  0.37542182     0.20400
C589        C  0.63373510  0.03256719  0.36407616    -0.05500
C590        C  0.61794057  0.03916248  0.40872275    -0.16600
C591        C  0.61738752  0.08302915  0.42881818     0.11700
C592        C  0.62753086  0.12350137  0.40223010    -0.05400
C593        C  0.64546090  0.11680713  0.35727262    -0.16600
C594        C  0.64900903  0.07153800  0.33799357     0.11800
S595        S  0.60193051  0.08476310  0.48843340    -0.31600
S596        S  0.67206703  0.06602983  0.28024325    -0.31600
H597        H  0.67983337  0.01740391  0.28032564     0.29800
H598        H  0.60807130  0.03696030  0.49869440     0.29800
H599        H  0.60689423  0.00878849  0.42831250     0.20400
H600        H  0.65556277  0.14691350  0.33681124     0.20400
C601        C  0.63617492  0.03606341  0.62861487    -0.05500
C602        C  0.59326347  0.04602548  0.60708462    -0.16600
C603        C  0.58141046  0.09158045  0.59470986     0.11700
C604        C  0.61483871  0.12844224  0.60089353    -0.05400
C605        C  0.65797703  0.11848252  0.62358817    -0.16600
C606        C  0.66865671  0.07264923  0.63808921     0.11800
S607        S  0.52370974  0.10053539  0.56926633    -0.31600
S608        S  0.72379068  0.06286891  0.66856512    -0.31600
H609        H  0.70810457  0.02370121  0.69361558     0.29800
H610        H  0.51425791  0.05363127  0.55756996     0.29800
H611        H  0.56871942  0.01754233  0.60055498     0.20400
H612        H  0.68327530  0.14637825  0.62998282     0.20400
C613        C  0.41164638  0.15649275  0.59633430    -0.05500
C614        C  0.39215139  0.15858180  0.64093246    -0.16600
C615        C  0.37198253  0.11867561  0.66154792     0.11700
C616        C  0.37292067  0.07539069  0.63776050    -0.05400
C617        C  0.39194393  0.07338753  0.59386038    -0.16600
C618        C  0.40777803  0.11355438  0.57176854     0.11800
S619        S  0.34628690  0.12508472  0.71813515    -0.31600
S620        S  0.42250482  0.10728109  0.51214175    -0.31600
H621        H  0.39490314  0.06710384  0.50350685     0.29800
H622        H  0.31258679  0.08895377  0.71408300     0.29800
H623        H  0.39270399  0.19135003  0.65975191     0.20400
H624        H  0.39278721  0.03995396  0.57621443     0.20400
C625        C  0.06835722  0.61865790  0.37781673    -0.05500
C626        C  0.11333532  0.62983277  0.35912756    -0.16600
C627        C  0.15526333  0.60882243  0.37556285     0.11700
C628        C  0.15173232  0.57501716  0.41067017    -0.05400
C629        C  0.10651320  0.56376663  0.42904239    -0.16600
C630        C  0.06490443  0.58554092  0.41335365     0.11800
S631        S  0.21145892  0.62673864  0.35050518    -0.31600
S632        S  0.00897249  0.56971237  0.44033689    -0.31600
H633        H  0.97908135  0.60278010  0.41914094     0.29800
H634        H  0.24147817  0.61109098  0.38595342     0.29800
H635        H  0.11559501  0.65577055  0.33202740     0.20400
H636        H  0.10383188  0.53811188  0.45643014     0.20400
C637        C  0.02611334  0.37098226  0.37575918    -0.05500
C638        C  0.06345527  0.34158560  0.36070257    -0.16600
C639        C  0.11006519  0.34703336  0.37731984     0.11700
C640        C  0.11891052  0.38228022  0.41014119    -0.05400
C641        C  0.08143884  0.41207527  0.42443734    -0.16600
C642        C  0.03519055  0.40654195  0.40776985     0.11800
S643        S  0.15582588  0.30801641  0.35552769    -0.31600
S644        S  0.98904997  0.44556529  0.42837100    -0.31600
H645        H  0.95114893  0.41354980  0.42553984     0.29800
H646        H  0.19587281  0.32993005  0.37481216     0.29800
H647        H  0.05592192  0.31410989  0.33607018     0.20400
H648        H  0.08828925  0.43940461  0.44948105     0.20400
C649        C  0.14788797  0.57547474  0.61125662    -0.05500
C650        C  0.10425406  0.56690346  0.58868095    -0.16600
C651        C  0.06281957  0.59176363  0.60006848     0.11700
C652        C  0.06477793  0.62589022  0.63468496    -0.05400
C653        C  0.10797019  0.63423158  0.65776788    -0.16600
C654        C  0.14981189  0.60961710  0.64625857     0.11800
S655        S  0.00884755  0.57978856  0.56857363    -0.31600
S656        S  0.20375709  0.62393178  0.67717203    -0.31600
H657        H  0.23637266  0.59671815  0.65174683     0.29800
H658        H  0.97633280  0.59248193  0.60341102     0.29800
H659        H  0.10285019  0.54118493  0.56124060     0.20400
H660        H  0.10888855  0.66035490  0.68480098     0.20400
C661        C  0.11304581  0.39176070  0.60616660    -0.05500
C662        C  0.08495393  0.42368384  0.58116955    -0.16600
C663        C  0.03536922  0.42419213  0.58521623     0.11700
C664        C  0.01301803  0.39375760  0.61618516    -0.05400
C665        C  0.04059182  0.36228320  0.64221563    -0.16600
C666        C  0.09066299  0.36052618  0.63717534     0.11800
S667        S  0.00002189  0.46192910  0.54908310    -0.31600
S668        S  0.12300953  0.31701786  0.66978492    -0.31600
H669        H  0.16959938  0.33139162  0.65862826     0.29800
H670        H  0.03814522  0.47947750  0.52250365     0.29800
H671        H  0.10213621  0.44702580  0.55686772     0.20400
H672        H  0.02285726  0.33857846  0.66577073     0.20400
C673        C  0.64704729  0.07950322  0.10687222    -0.05500
C674        C  0.64631915  0.10519252  0.14804493    -0.16600
C675        C  0.60408172  0.12716706  0.16324951     0.11700
C676        C  0.56179266  0.12273115  0.13704930    -0.05400
C677        C  0.56246594  0.09710262  0.09658535    -0.16600
C678        C  0.60430107  0.07622715  0.08079757     0.11800
S679        S  0.60639867  0.16067352  0.21577750    -0.31600
S680        S  0.60006811  0.04852907  0.02557927    -0.31600
H681        H  0.63471683  0.01417297  0.03349963     0.29800
H682        H  0.56977620  0.19251051  0.20464858     0.29800
H683        H  0.67882558  0.10874988  0.16790747     0.20400
H684        H  0.52984809  0.09392987  0.07679486     0.20400
C685        C  0.57633144  0.11461211  0.87607317    -0.05500
C686        C  0.62102640  0.13405691  0.86456775    -0.16600
C687        C  0.66392345  0.11287187  0.87870687     0.11700
C688        C  0.66192968  0.07143599  0.90490467    -0.05400
C689        C  0.61720598  0.05086526  0.91374484    -0.16600
C690        C  0.57449806  0.07264715  0.90118014     0.11800
S691        S  0.71963091  0.14034723  0.86304938    -0.31600
S692        S  0.51922908  0.04608999  0.92006388    -0.31600
H693        H  0.48844307  0.08374235  0.91026756     0.29800
H694        H  0.74831283  0.09999368  0.86723443     0.29800
H695        H  0.62226765  0.16596420  0.84445439     0.20400
H696        H  0.61556425  0.01849904  0.93280809     0.20400
C697        C  0.61455087  0.89282610  0.11115054    -0.05500
C698        C  0.58384959  0.92888444  0.09662363    -0.16600
C699        C  0.53448048  0.92537810  0.10134890     0.11700
C700        C  0.51489605  0.88591237  0.12265033    -0.05400
C701        C  0.54521449  0.85081676  0.14022090    -0.16600
C702        C  0.59528466  0.85405632  0.13471947     0.11800
S703        S  0.49611149  0.97026413  0.07784312    -0.31600
S704        S  0.63440587  0.80963402  0.15790761    -0.31600
H705        H  0.59793644  0.77944763  0.17307140     0.29800
H706        H  0.53006528  0.00583272  0.08172976     0.29800
H707        H  0.59856670  0.95896443  0.07927750     0.20400
H708        H  0.52954818  0.82116804  0.15781195     0.20400
C709        C  0.53694634  0.86599171  0.87224128    -0.05500
C710        C  0.54063662  0.89461481  0.91058579    -0.16600
C711        C  0.58463474  0.90298615  0.93082950     0.11700
C712        C  0.62704597  0.88338209  0.91154094    -0.05400
C713        C  0.62345901  0.85515970  0.87218679    -0.16600
C714        C  0.57861282  0.84569464  0.85272921     0.11800
S715        S  0.58227461  0.93651195  0.98299873    -0.31600
S716        S  0.57652050  0.80662510  0.80410774    -0.31600
H717        H  0.53141256  0.78759728  0.81429490     0.29800
H718        H  0.62872467  0.95396764  0.98099917     0.29800
H719        H  0.50834983  0.90929124  0.92570567     0.20400
H720        H  0.65541576  0.83941491  0.85750915     0.20400
C721        C  0.41690959  0.39687119  0.86542002    -0.05500
C722        C  0.38559439  0.35878115  0.86309266    -0.16600
C723        C  0.36853518  0.33760946  0.90337836     0.11700
C724        C  0.38358983  0.35487492  0.94657585    -0.05400
C725        C  0.41515129  0.39206880  0.94881704    -0.16600
C726        C  0.43181628  0.41336422  0.90909944     0.11800
S727        S  0.32816199  0.28889131  0.89698913    -0.31600
S728        S  0.47214394  0.46102472  0.91839539    -0.31600
H729        H  0.47201555  0.48081919  0.87469719     0.29800
H730        H  0.31089578  0.28697933  0.94223663     0.29800
H731        H  0.37403634  0.34597762  0.82987316     0.20400
H732        H  0.42640162  0.40483274  0.98218158     0.20400
C733        C  0.39786574  0.60000866  0.86665163    -0.05500
C734        C  0.42060412  0.57853910  0.90423093    -0.16600
C735        C  0.40279561  0.58300082  0.94875169     0.11700
C736        C  0.36349648  0.61251344  0.95669827    -0.05400
C737        C  0.34156206  0.63583280  0.91978775    -0.16600
C738        C  0.35764453  0.62906785  0.87448047     0.11800
S739        S  0.42874856  0.54709486  0.99330576    -0.31600
S740        S  0.32440125  0.65698007  0.82892472    -0.31600
H741        H  0.35342514  0.64325516  0.79176286     0.29800
H742        H  0.41391316  0.57332207  0.03161567     0.29800
H743        H  0.45121428  0.55612603  0.89826403     0.20400
H744        H  0.31120337  0.65863215  0.92643985     0.20400
C745        C  0.59011488  0.62565334  0.86335065    -0.05500
C746        C  0.56168732  0.61106617  0.90063853    -0.16600
C747        C  0.57384911  0.62161286  0.94577586     0.11700
C748        C  0.61372454  0.64977547  0.95430690    -0.05400
C749        C  0.64080393  0.66717674  0.91724153    -0.16600
C750        C  0.62917602  0.65572198  0.87163577     0.11800
S751        S  0.53796115  0.59729625  0.99136391    -0.31600
S752        S  0.66466064  0.68097070  0.82610162    -0.31600
H753        H  0.63278266  0.67151168  0.79007239     0.29800
H754        H  0.57379330  0.59634289  0.02507826     0.29800
H755        H  0.53109067  0.58877907  0.89458814     0.16800
H756        H  0.67080441  0.69005814  0.92403973     0.20400
C757        C  0.64186616  0.38025037  0.95359186    -0.05500
C758        C  0.61565245  0.42157722  0.95229182    -0.16600
C759        C  0.60595783  0.44381867  0.91100278     0.11700
C760        C  0.61822225  0.42192000  0.86866978    -0.05400
C761        C  0.64421766  0.37969975  0.86985033    -0.16600
C762        C  0.65669048  0.35898148  0.91191204     0.11800
S763        S  0.58253234  0.50212360  0.91657686    -0.31600
S764        S  0.69121443  0.30560589  0.91038510    -0.31600
H765        H  0.71971476  0.31687025  0.94851599     0.29800
H766        H  0.55291878  0.50091783  0.87806710     0.29800
H767        H  0.60434361  0.43772884  0.98428398     0.20400
H768        H  0.65472295  0.36286429  0.83793637     0.20400
C769        C  0.12913861  0.53343424  0.12516154    -0.05500
C770        C  0.09152069  0.54192123  0.09550246    -0.16600
C771        C  0.08346434  0.58636701  0.07797619     0.11700
C772        C  0.11361766  0.62419081  0.09052247    -0.05400
C773        C  0.15225972  0.61542756  0.11992377    -0.16600
C774        C  0.16057876  0.57020043  0.13714129     0.11800
S775        S  0.03263918  0.59105315  0.04112606    -0.31600
S776        S  0.21198893  0.56166269  0.17348915    -0.31600
H777        H  0.19693178  0.52008839  0.19468271     0.29800
H778        H  0.04482499  0.63274763  0.01928068     0.29800
H779        H  0.06837507  0.51319217  0.08577601     0.20400
H780        H  0.17554374  0.64393039  0.12986086     0.20400
C781        C  0.12259480  0.63351683  0.90022566    -0.05500
C782        C  0.11082711  0.59706878  0.93072962    -0.16600
C783        C  0.11081774  0.55046433  0.91705361     0.11700
C784        C  0.12655416  0.53882913  0.87260930    -0.05400
C785        C  0.14270367  0.57442837  0.84298846    -0.16600
C786        C  0.14173164  0.62172171  0.85662930     0.11800
S787        S  0.08789004  0.50774947  0.95720950    -0.31600
S788        S  0.16765292  0.66443496  0.81829903    -0.31600
H789        H  0.17034339  0.70104413  0.85051805     0.29800
H790        H  0.07198822  0.47568747  0.92395721     0.29800
H791        H  0.09782819  0.60526243  0.96478273     0.20400
H792        H  0.15701636  0.56506280  0.80952692     0.20400
C793        C  0.90707776  0.65179529  0.09413750    -0.05500
C794        C  0.88645269  0.65565979  0.13813652    -0.16600
C795        C  0.86560809  0.61666560  0.15962780     0.11700
C796        C  0.86693396  0.57259229  0.13731170    -0.05400
C797        C  0.88791084  0.56872511  0.09432355    -0.16600
C798        C  0.90438125  0.60781358  0.07118928     0.11800
S799        S  0.83905486  0.62511455  0.21558531    -0.31600
S800        S  0.91519833  0.59806151  0.01123950    -0.31600
H801        H  0.95283284  0.62906890  0.00852830     0.29800
H802        H  0.80470454  0.58954520  0.21164795     0.29800
H803        H  0.88721773  0.68900140  0.15597874     0.20400
H804        H  0.88932191  0.53476363  0.07766041     0.20400
C805        C  0.86787325  0.56594508  0.87833872    -0.05500
C806        C  0.91484991  0.56461366  0.89354490    -0.16600
C807        C  0.94013452  0.60535124  0.90211166     0.11700
C808        C  0.91773679  0.64993877  0.89742018    -0.05400
C809        C  0.87067643  0.65124020  0.88024660    -0.16600
C810        C  0.84556871  0.60970459  0.87070762     0.11800
S811        S  0.00070840  0.59565505  0.91913553    -0.31600
S812        S  0.78568154  0.61455049  0.84849752    -0.31600
H813        H  0.78728516  0.57338728  0.82193895     0.29800
H814        H  0.00331189  0.63237786  0.95045395     0.29800
H815        H  0.93225256  0.53089880  0.89811537     0.20400
H816        H  0.85337935  0.68468603  0.87424969     0.20400
loop_ 
_geom_bond_atom_site_label_1 
_geom_bond_atom_site_label_2 
_geom_bond_distance 
_geom_bond_site_symmetry_2 
_ccdc_geom_bond_type 
In1           O3   2.265       .  S
In1           O4   2.254       .  S
In1          O12   2.261       .  S
In1           O6   2.248       .  S
In1           O8   2.294   1_554  S
In1           O9   2.291   1_554  S
In1          O10   2.238   1_554  S
In1          O13   2.263       .  S
C2            O8   1.263       .  A
C2           O10   1.256       .  A
C2          C130   1.480       .  S
O3           C11   1.262       .  A
O4           C11   1.267       .  A
C5           O12   1.263       .  A
C5            O6   1.266       .  A
C5          C150   1.490       .  S
C7            O9   1.262   1_554  A
C7           O13   1.257       .  A
C7          C198   1.485       .  S
C11         C481   1.488       .  S
In14         O16   2.263       .  S
In14         O17   2.284   1_554  S
In14         O25   2.273       .  S
In14         O19   2.259       .  S
In14         O21   2.286   1_554  S
In14         O22   2.298   1_554  S
In14         O23   2.266   1_554  S
In14         O26   2.264       .  S
C15          O21   1.259       .  A
C15          O23   1.256       .  A
C15         C252   1.490       .  S
O16          C24   1.256       .  A
O17          C24   1.259   1_556  A
C18          O25   1.260       .  A
C18          O19   1.262       .  A
C18         C269   1.486       .  S
C20          O22   1.260   1_554  A
C20          O26   1.257       .  A
C20         C495   1.492       .  S
C24         C195   1.489       .  S
In27         O29   2.272       .  S
In27         O30   2.250       .  S
In27         O38   2.268       .  S
In27         O32   2.259       .  S
In27         O34   2.319   1_655  S
In27         O35   2.271   1_655  S
In27         O36   2.252   1_655  S
In27         O39   2.252       .  S
C28          O34   1.260       .  A
C28          O36   1.256       .  A
C28         C157   1.494       .  S
O29          C37   1.261       .  A
O30          C37   1.259       .  A
C31          O38   1.260       .  A
C31          O32   1.259       .  A
C31         C127   1.483       .  S
C33          O35   1.261   1_655  A
C33          O39   1.257       .  A
C33         C317   1.481       .  S
C37         C453   1.481       .  S
In40         O42   2.252   1_565  S
In40         O43   2.286   1_565  S
In40         O51   2.255   1_565  S
In40         O45   2.283   1_565  S
In40         O47   2.279   1_565  S
In40         O48   2.275       .  S
In40         O49   2.262       .  S
In40         O52   2.249       .  S
C41          O47   1.257   1_565  A
C41          O49   1.252       .  A
C41         C358   1.484       .  S
O42          C50   1.254       .  A
O43          C50   1.259       .  A
C44          O51   1.261       .  A
C44          O45   1.265       .  A
C44         C446   1.483       .  S
C46          O48   1.268       .  A
C46          O52   1.264       .  A
C46         C249   1.485       .  S
C50         C279   1.481       .  S
In53         O55   2.252   1_565  S
In53         O56   2.301   1_565  S
In53         O64   2.248       .  S
In53         O58   2.271       .  S
In53         O60   2.266       .  S
In53         O61   2.304       .  S
In53         O62   2.301       .  S
In53         O65   2.237       .  S
C54          O60   1.256       .  A
C54          O62   1.258       .  A
C54         C470   1.490       .  S
O55          C63   1.259       .  A
O56          C63   1.267       .  A
C57          O64   1.261       .  A
C57          O58   1.267       .  A
C57         C361   1.478       .  S
C59          O61   1.268       .  A
C59          O65   1.255       .  A
C59         C415   1.485       .  S
C63         C435   1.492       .  S
In66         O68   2.268   1_455  S
In66         O69   2.243   1_455  S
In66         O77   2.241       .  S
In66         O71   2.280       .  S
In66         O73   2.282       .  S
In66         O74   2.283       .  S
In66         O75   2.241       .  S
In66         O78   2.261       .  S
C67          O73   1.263       .  A
C67          O75   1.256       .  A
C67         C477   1.481       .  S
O68          C76   1.262       .  A
O69          C76   1.264       .  A
C70          O77   1.261       .  A
C70          O71   1.267       .  A
C70         C320   1.484       .  S
C72          O74   1.260       .  A
C72          O78   1.259       .  A
C72         C442   1.482       .  S
C76         C412   1.483       .  S
In79         O81   2.273       .  S
In79         O82   2.312       .  S
In79         O90   2.238   1_556  S
In79         O84   2.296       .  S
In79         O86   2.319       .  S
In79         O87   2.281   1_556  S
In79         O88   2.238   1_556  S
In79         O91   2.253   1_556  S
C80          O86   1.267   1_554  A
C80          O88   1.256       .  A
C80         C498   1.492       .  S
O81          C89   1.254       .  A
O82          C89   1.258       .  A
C83          O90   1.256       .  A
C83          O84   1.269   1_554  A
C83         C523   1.486       .  S
C85          O87   1.267       .  A
C85          O91   1.258       .  A
C85         C502   1.481       .  S
C89         C154   1.496       .  S
N92          C97   1.356   1_556  A
N92          C96   1.356       .  A
N92         H124   1.029       .  S
N93         C100   1.355       .  A
N93         C101   1.358   1_455  A
N94          C99   1.355   1_556  A
N94          C98   1.351       .  A
N94         H125   1.027       .  S
N95         C102   1.351       .  A
N95         C103   1.353   1_455  A
C96         C104   1.390       .  A
C96         C112   1.424       .  A
C97         C113   1.416       .  A
C97         C105   1.385       .  A
C98         C106   1.389       .  A
C98         C115   1.418       .  A
C99         C114   1.415       .  A
C99         C107   1.383       .  A
C100        C112   1.426       .  A
C100        C108   1.390       .  A
C101        C115   1.420       .  A
C101        C109   1.381   1_655  A
C102        C110   1.386       .  A
C102        C113   1.413       .  A
C103        C111   1.388       .  A
C103        C114   1.419       .  A
C104        C105   1.371   1_556  A
C104        H116   1.083       .  S
C105        H117   1.082       .  S
C106        C107   1.372   1_556  A
C106        H118   1.079       .  S
C107        H119   1.083       .  S
C108        C109   1.369       .  A
C108        H120   1.077       .  S
C109        H121   1.083   1_455  S
C110        C111   1.366   1_455  A
C110        H122   1.083       .  S
C111        H123   1.080       .  S
C112        C781   1.503       .  S
C113        C772   1.493       .  S
C114        C793   1.499       .  S
C115        C808   1.507       .  S
N126        C130   1.356       .  A
N126        C127   1.358       .  A
N126        C805   1.434       .  S
C127        C128   1.381       .  A
C128        C129   1.380       .  A
C128        H131   1.082       .  S
C129        C130   1.385       .  A
C129        H132   1.083       .  S
In133       O135   2.261       .  S
In133       O136   2.292   1_655  S
In133       O144   2.262       .  S
In133       O138   2.272       .  S
In133       O140   2.302   1_655  S
In133       O141   2.271       .  S
In133       O142   2.264   1_655  S
In133       O145   2.256       .  S
C134        O140   1.259       .  A
C134        O142   1.254       .  A
C134        C505   1.488       .  S
O135        C143   1.255   1_655  A
O136        C143   1.259       .  A
C137        O144   1.260       .  A
C137        O138   1.264       .  A
C137        C147   1.481       .  S
C139        O141   1.267       .  A
C139        O145   1.263       .  A
C139        C509   1.485       .  S
C143        C474   1.483       .  S
N146        C150   1.358       .  A
N146        C147   1.353       .  A
N146        C796   1.431       .  S
C147        C148   1.383       .  A
C148        C149   1.384       .  A
C148        H151   1.082       .  S
C149        C150   1.383       .  A
C149        H152   1.082       .  S
N153        C157   1.363       .  A
N153        C154   1.364       .  A
N153        C784   1.433       .  S
C154        C155   1.382       .  A
C155        C156   1.379       .  A
C155        H158   1.082       .  S
C156        C157   1.383       .  A
C156        H159   1.082       .  S
N160        C165   1.357       .  A
N160        C164   1.356       .  A
N160        H192   1.035       .  S
N161        C168   1.351       .  A
N161        C169   1.350       .  A
N162        C167   1.355       .  A
N162        C166   1.354       .  A
N162        H193   1.036       .  S
N163        C170   1.350       .  A
N163        C171   1.351       .  A
C164        C172   1.388       .  A
C164        C180   1.421       .  A
C165        C181   1.419       .  A
C165        C173   1.385       .  A
C166        C174   1.388       .  A
C166        C183   1.414       .  A
C167        C182   1.414       .  A
C167        C175   1.387       .  A
C168        C180   1.411       .  A
C168        C176   1.387       .  A
C169        C183   1.407       .  A
C169        C177   1.384       .  A
C170        C178   1.389       .  A
C170        C181   1.414       .  A
C171        C179   1.383       .  A
C171        C182   1.408       .  A
C172        C173   1.371       .  A
C172        H184   1.081       .  S
C173        H185   1.083       .  S
C174        C175   1.366       .  A
C174        H186   1.083       .  S
C175        H187   1.083       .  S
C176        C177   1.371       .  A
C176        H188   1.083       .  S
C177        H189   1.083       .  S
C178        C179   1.367       .  A
C178        H190   1.080       .  S
C179        H191   1.083       .  S
C180        C745   1.493       .  S
C181        C760   1.496       .  S
C182        C721   1.486       .  S
C183        C733   1.486       .  S
N194        C198   1.356       .  A
N194        C195   1.358       .  A
N194        C748   1.432   1_554  S
C195        C196   1.383       .  A
C196        C197   1.382       .  A
C196        H199   1.082       .  S
C197        C198   1.383       .  A
C197        H200   1.082       .  S
In201       O203   2.256       .  S
In201       O204   2.274       .  S
In201       O212   2.255       .  S
In201       O206   2.265   1_554  S
In201       O208   2.275   1_554  S
In201       O209   2.303   1_554  S
In201       O210   2.268       .  S
In201       O213   2.236   1_554  S
C202        O208   1.259   1_554  A
C202        O210   1.259       .  A
C202        C484   1.482       .  S
O203        C211   1.261       .  A
O204        C211   1.266       .  A
C205        O212   1.261       .  A
C205        O206   1.265   1_554  A
C205        C526   1.480       .  S
C207        O209   1.263       .  A
C207        O213   1.255       .  A
C207        C276   1.482       .  S
C211        C488   1.488       .  S
N214        C219   1.356       .  A
N214        C218   1.356   1_554  A
N214        H246   1.036       .  S
N215        C222   1.350   1_565  A
N215        C223   1.350       .  A
N216        C221   1.356       .  A
N216        C220   1.355   1_554  A
N216        H247   1.036       .  S
N217        C224   1.350   1_565  A
N217        C225   1.352       .  A
C218        C226   1.388       .  A
C218        C234   1.419       .  A
C219        C235   1.418       .  A
C219        C227   1.386       .  A
C220        C228   1.385       .  A
C220        C237   1.416       .  A
C221        C236   1.419       .  A
C221        C229   1.389       .  A
C222        C234   1.409       .  A
C222        C230   1.386   1_545  A
C223        C237   1.410       .  A
C223        C231   1.385       .  A
C224        C232   1.386   1_545  A
C224        C235   1.411       .  A
C225        C233   1.385       .  A
C225        C236   1.411       .  A
C226        C227   1.368   1_556  A
C226        H238   1.081       .  S
C227        H239   1.083       .  S
C228        C229   1.368   1_556  A
C228        H240   1.083       .  S
C229        H241   1.080       .  S
C230        C231   1.370       .  A
C230        H242   1.083   1_565  S
C231        H243   1.082       .  S
C232        C233   1.371       .  A
C232        H244   1.081   1_565  S
C233        H245   1.083       .  S
C234        C688   1.493       .  S
C235        C673   1.494       .  S
C236        C697   1.494       .  S
C237        C712   1.492       .  S
N248        C252   1.358       .  A
N248        C249   1.356       .  A
N248        C709   1.430       .  S
C249        C250   1.383       .  A
C250        C251   1.382       .  A
C250        H253   1.082       .  S
C251        C252   1.383       .  A
C251        H254   1.082       .  S
In255       O257   2.269   1_545  S
In255       O258   2.280       .  S
In255       O266   2.250   1_545  S
In255       O260   2.269   1_545  S
In255       O262   2.280       .  S
In255       O263   2.322       .  S
In255       O264   2.254       .  S
In255       O267   2.253   1_545  S
C256        O262   1.263       .  A
C256        O264   1.258       .  A
C256        C491   1.483       .  S
O257        C265   1.256       .  A
O258        C265   1.260   1_545  A
C259        O266   1.260       .  A
C259        O260   1.262       .  A
C259        C272   1.486       .  S
C261        O263   1.258   1_565  A
C261        O267   1.255       .  A
C261        C467   1.492       .  S
C265        C516   1.492       .  S
N268        C272   1.358       .  A
N268        C269   1.359       .  A
N268        C700   1.433       .  S
C269        C270   1.384       .  A
C270        C271   1.380       .  A
C270        H273   1.082       .  S
C271        C272   1.382       .  A
C271        H274   1.082       .  S
N275        C279   1.358       .  A
N275        C276   1.357       .  A
N275        C685   1.433       .  S
C276        C277   1.383       .  A
C277        C278   1.376       .  A
C277        H280   1.083       .  S
C278        C279   1.382       .  A
C278        H281   1.083       .  S
N282        C287   1.351       .  A
N282        C286   1.353       .  A
N282        H314   1.034       .  S
N283        C290   1.349       .  A
N283        C291   1.348       .  A
N284        C289   1.356       .  A
N284        C288   1.354       .  A
N284        H315   1.036       .  S
N285        C292   1.348       .  A
N285        C293   1.351       .  A
C286        C294   1.386       .  A
C286        C302   1.411       .  A
C287        C303   1.412       .  A
C287        C295   1.388       .  A
C288        C296   1.387       .  A
C288        C305   1.415       .  A
C289        C304   1.415       .  A
C289        C297   1.388       .  A
C290        C302   1.405       .  A
C290        C298   1.384       .  A
C291        C305   1.407       .  A
C291        C299   1.388       .  A
C292        C300   1.384       .  A
C292        C303   1.409       .  A
C293        C301   1.387       .  A
C293        C304   1.408       .  A
C294        C295   1.367       .  A
C294        H306   1.083       .  S
C295        H307   1.083       .  S
C296        C297   1.369       .  A
C296        H308   1.083       .  S
C297        H309   1.082       .  S
C298        C299   1.369       .  A
C298        H310   1.083       .  S
C299        H311   1.083       .  S
C300        C301   1.372       .  A
C300        H312   1.082       .  S
C301        H313   1.083       .  S
C302        C628   1.484       .  S
C303        C649   1.483       .  S
C304        C661   1.488       .  S
C305        C640   1.482       .  S
N316        C320   1.355       .  A
N316        C317   1.354   1_455  A
N316        C652   1.430       .  S
C317        C318   1.382       .  A
C318        C319   1.381       .  A
C318        H321   1.082       .  S
C319        C320   1.384   1_655  A
C319        H322   1.082       .  S
N323        C328   1.360       .  A
N323        C327   1.357       .  A
N323        H355   1.031       .  S
N324        C331   1.351       .  A
N324        C332   1.354       .  A
N325        C330   1.350       .  A
N325        C329   1.352       .  A
N325        H356   1.035       .  S
N326        C333   1.353       .  A
N326        C334   1.354       .  A
C327        C335   1.387       .  A
C327        C343   1.424       .  A
C328        C344   1.425       .  A
C328        C336   1.386       .  A
C329        C337   1.382       .  A
C329        C346   1.409       .  A
C330        C345   1.413       .  A
C330        C338   1.389       .  A
C331        C343   1.415       .  A
C331        C339   1.387       .  A
C332        C346   1.419       .  A
C332        C340   1.387       .  A
C333        C341   1.392       .  A
C333        C344   1.424       .  A
C334        C342   1.382       .  A
C334        C345   1.414       .  A
C335        C336   1.374       .  A
C335        H347   1.078       .  S
C336        H348   1.082       .  S
C337        C338   1.376       .  A
C337        H349   1.083       .  S
C338        H350   1.080       .  S
C339        C340   1.370       .  A
C339        H351   1.083       .  S
C340        H352   1.079       .  S
C341        C342   1.370       .  A
C341        H353   1.078       .  S
C342        H354   1.083       .  S
C343        C604   1.503       .  S
C344        C592   1.510       .  S
C345        C580   1.498       .  S
C346        C613   1.505       .  S
N357        C361   1.353       .  A
N357        C358   1.356       .  A
N357        C601   1.431   1_565  S
C358        C359   1.383       .  A
C359        C360   1.382       .  A
C359        H362   1.082       .  S
C360        C361   1.382       .  A
C360        H363   1.082       .  S
In364       O366   2.267   1_545  S
In364       O367   2.253   1_545  S
In364       O375   2.260       .  S
In364       O369   2.262       .  S
In364       O371   2.303       .  S
In364       O372   2.294       .  S
In364       O373   2.246       .  S
In364       O376   2.268       .  S
C365        O371   1.263       .  A
C365        O373   1.257       .  A
C365        C519   1.486       .  S
O366        C374   1.260       .  A
O367        C374   1.265       .  A
C368        O375   1.262       .  A
C368        O369   1.265       .  A
C368        C449   1.491       .  S
C370        O372   1.261       .  A
C370        O376   1.258       .  A
C370        C463   1.487       .  S
C374        C439   1.483       .  S
N377        C382   1.358       .  A
N377        C381   1.358   1_545  A
N377        H409   1.038       .  S
N378        C385   1.351       .  A
N378        C386   1.355   1_455  A
N379        C384   1.354       .  A
N379        C383   1.356   1_545  A
N379        H410   1.035       .  S
N380        C387   1.351       .  A
N380        C388   1.351   1_455  A
C381        C389   1.385   1_565  A
C381        C397   1.419       .  A
C382        C398   1.423       .  A
C382        C390   1.389       .  A
C383        C391   1.390       .  A
C383        C400   1.422       .  A
C384        C399   1.414       .  A
C384        C392   1.384       .  A
C385        C397   1.418       .  A
C385        C393   1.389       .  A
C386        C400   1.417       .  A
C386        C394   1.382   1_655  A
C387        C395   1.389       .  A
C387        C398   1.413       .  A
C388        C396   1.383       .  A
C388        C399   1.410       .  A
C389        C390   1.368       .  A
C389        H401   1.082   1_545  S
C390        H402   1.079       .  S
C391        C392   1.366   1_565  A
C391        H403   1.079       .  S
C392        H404   1.083       .  S
C393        C394   1.372       .  A
C393        H405   1.080       .  S
C394        H406   1.083   1_455  S
C395        C396   1.371   1_455  A
C395        H407   1.083       .  S
C396        H408   1.082       .  S
C397        C544   1.501       .  S
C398        C529   1.498       .  S
C399        C556   1.494       .  S
C400        C568   1.503       .  S
N411        C415   1.352       .  A
N411        C412   1.357       .  A
N411        C565   1.430       .  S
C412        C413   1.381       .  A
C413        C414   1.383       .  A
C413        H416   1.082       .  S
C414        C415   1.386       .  A
C414        H417   1.082       .  S
In418       O420   2.256   1_655  S
In418       O421   2.290   1_655  S
In418       O429   2.248       .  S
In418       O423   2.275       .  S
In418       O425   2.270       .  S
In418       O426   2.281       .  S
In418       O427   2.264       .  S
In418       O430   2.262       .  S
C419        O425   1.260       .  A
C419        O427   1.258       .  A
C419        C512   1.486       .  S
O420        C428   1.258       .  A
O421        C428   1.260       .  A
C422        O429   1.259       .  A
C422        O423   1.260       .  A
C422        C456   1.481       .  S
C424        O426   1.261       .  A
C424        O430   1.259       .  A
C424        C432   1.489       .  S
C428        C460   1.488       .  S
N431        C435   1.359       .  A
N431        C432   1.358       .  A
N431        C553   1.428       .  S
C432        C433   1.383       .  A
C433        C434   1.381       .  A
C433        H436   1.082       .  S
C434        C435   1.383       .  A
C434        H437   1.081       .  S
N438        C442   1.357       .  A
N438        C439   1.357       .  A
N438        C541   1.435       .  S
C439        C440   1.380       .  A
C440        C441   1.383       .  A
C440        H443   1.082       .  S
C441        C442   1.385       .  A
C441        H444   1.082       .  S
N445        C449   1.359       .  A
N445        C446   1.356       .  A
N445        C616   1.432       .  S
C446        C447   1.382   1_545  A
C447        C448   1.382       .  A
C447        H450   1.082       .  S
C448        C449   1.383   1_565  A
C448        H451   1.082       .  S
N452        C456   1.357       .  A
N452        C453   1.357       .  A
N452        C664   1.433   1_655  S
C453        C454   1.383       .  A
C454        C455   1.379       .  A
C454        H457   1.082       .  S
C455        C456   1.382       .  A
C455        H458   1.082       .  S
N459        C463   1.358       .  A
N459        C460   1.359       .  A
N459        C532   1.432       .  S
C460        C461   1.383       .  A
C461        C462   1.381       .  A
C461        H464   1.082       .  S
C462        C463   1.383       .  A
C462        H465   1.082       .  S
N466        C470   1.363       .  A
N466        C467   1.362       .  A
N466        C589   1.431   1_565  S
C467        C468   1.385       .  A
C468        C469   1.377       .  A
C468        H471   1.082       .  S
C469        C470   1.379       .  A
C469        H472   1.082       .  S
N473        C477   1.354       .  A
N473        C474   1.355       .  A
N473        C625   1.430       .  S
C474        C475   1.384   1_455  A
C475        C476   1.380       .  A
C475        H478   1.082       .  S
C476        C477   1.383   1_655  A
C476        H479   1.083       .  S
N480        C484   1.355   1_556  A
N480        C481   1.357   1_556  A
N480        C757   1.433       .  S
C481        C482   1.382       .  A
C482        C483   1.384       .  A
C482        H485   1.082       .  S
C483        C484   1.384       .  A
C483        H486   1.082       .  S
N487        C491   1.354       .  A
N487        C488   1.356       .  A
N487        C676   1.429       .  S
C488        C489   1.383       .  A
C489        C490   1.383       .  A
C489        H492   1.082       .  S
C490        C491   1.383       .  A
C490        H493   1.082       .  S
N494        C498   1.359       .  A
N494        C495   1.359       .  A
N494        C736   1.426   1_554  S
C495        C496   1.382       .  A
C496        C497   1.380       .  A
C496        H499   1.082       .  S
C497        C498   1.384       .  A
C497        H500   1.082       .  S
N501        C505   1.356       .  A
N501        C502   1.352       .  A
N501        C769   1.427       .  S
C502        C503   1.382       .  A
C503        C504   1.384       .  A
C503        H506   1.082       .  S
C504        C505   1.384       .  A
C504        H507   1.082       .  S
N508        C512   1.355       .  A
N508        C509   1.354       .  A
N508        C637   1.428   1_655  S
C509        C510   1.384       .  A
C510        C511   1.384       .  A
C510        H513   1.082       .  S
C511        C512   1.383       .  A
C511        H514   1.082       .  S
N515        C519   1.358       .  A
N515        C516   1.360   1_545  A
N515        C577   1.431       .  S
C516        C517   1.382       .  A
C517        C518   1.380       .  A
C517        H520   1.082       .  S
C518        C519   1.385   1_565  A
C518        H521   1.083       .  S
N522        C526   1.353   1_556  A
N522        C523   1.352   1_556  A
N522        C724   1.425       .  S
C523        C524   1.385       .  A
C524        C525   1.384       .  A
C524        H527   1.082       .  S
C525        C526   1.382       .  A
C525        H528   1.082       .  S
C529        C530   1.406       .  A
C529        C534   1.411       .  A
C530        C531   1.388       .  A
C530        H539   1.077       .  S
C531        C532   1.402       .  A
C531        S535   1.805       .  S
C532        C533   1.408       .  A
C533        C534   1.405       .  A
C533        H540   1.083       .  S
C534        S536   1.803       .  S
S535        H538   1.405       .  S
S536        H537   1.405       .  S
C541        C542   1.387       .  A
C541        C546   1.416       .  A
C542        C543   1.387       .  A
C542        H551   1.083       .  S
C543        C544   1.423       .  A
C543        S547   1.799   1_565  S
C544        C545   1.406       .  A
C545        C546   1.406       .  A
C545        H552   1.083       .  S
C546        S548   1.802       .  S
S547        H550   1.393       .  S
S548        H549   1.404       .  S
C553        C554   1.384       .  A
C553        C558   1.416       .  A
C554        C555   1.384       .  A
C554        H563   1.084       .  S
C555        C556   1.421       .  A
C555        S559   1.792       .  S
C556        C557   1.404       .  A
C557        C558   1.406       .  A
C557        H564   1.083       .  S
C558        S560   1.804       .  S
S559        H562   1.394       .  S
S560        H561   1.401       .  S
C565        C566   1.380       .  A
C565        C570   1.414       .  A
C566        C567   1.382       .  A
C566        H575   1.084       .  S
C567        C568   1.419       .  A
C567        S571   1.776   1_655  S
C568        C569   1.406       .  A
C569        C570   1.407       .  A
C569        H576   1.083       .  S
C570        S572   1.800       .  S
S571        H574   1.384       .  S
S572        H573   1.405       .  S
C577        C578   1.388       .  A
C577        C582   1.412       .  A
C578        C579   1.389       .  A
C578        H587   1.082       .  S
C579        C580   1.421       .  A
C579        S583   1.800       .  S
C580        C581   1.405       .  A
C581        C582   1.404       .  A
C581        H588   1.083       .  S
C582        S584   1.802       .  S
S583        H586   1.406       .  S
S584        H585   1.404       .  S
C589        C590   1.382       .  A
C589        C594   1.413       .  A
C590        C591   1.381       .  A
C590        H599   1.083       .  S
C591        C592   1.419       .  A
C591        S595   1.785       .  S
C592        C593   1.411       .  A
C593        C594   1.411       .  A
C593        H600   1.083       .  S
C594        S596   1.803       .  S
S595        H598   1.407       .  S
S596        H597   1.404       .  S
C601        C602   1.383       .  A
C601        C606   1.414       .  A
C602        C603   1.388       .  A
C602        H611   1.083       .  S
C603        C604   1.421       .  A
C603        S607   1.794       .  S
C604        C605   1.404       .  A
C605        C606   1.406       .  A
C605        H612   1.083       .  S
C606        S608   1.801       .  S
S607        H610   1.407       .  S
S608        H609   1.405       .  S
C613        C614   1.406       .  A
C613        C618   1.422       .  A
C614        C615   1.406       .  A
C614        H623   1.083       .  S
C615        C616   1.415       .  A
C615        S619   1.801       .  S
C616        C617   1.382       .  A
C617        C618   1.388       .  A
C617        H624   1.083       .  S
C618        S620   1.789       .  S
S619        H622   1.404       .  S
S620        H621   1.407       .  S
C625        C626   1.405       .  A
C625        C630   1.404       .  A
C626        C627   1.400       .  A
C626        H635   1.083       .  S
C627        C628   1.409       .  A
C627        S631   1.804       .  S
C628        C629   1.408       .  A
C629        C630   1.394       .  A
C629        H636   1.085       .  S
C630        S632   1.805       .  S
S631        H634   1.404       .  S
S632        H633   1.402   1_455  S
C637        C638   1.404       .  A
C637        C642   1.401       .  A
C638        C639   1.400       .  A
C638        H647   1.083       .  S
C639        C640   1.409       .  A
C639        S643   1.804       .  S
C640        C641   1.407       .  A
C641        C642   1.391       .  A
C641        H648   1.085       .  S
C642        S644   1.800   1_455  S
S643        H646   1.403       .  S
S644        H645   1.404       .  S
C649        C650   1.409       .  A
C649        C654   1.410       .  A
C650        C651   1.394       .  A
C650        H659   1.085       .  S
C651        C652   1.401       .  A
C651        S655   1.801       .  S
C652        C653   1.404       .  A
C653        C654   1.400       .  A
C653        H660   1.083       .  S
C654        S656   1.806       .  S
S655        H658   1.404   1_455  S
S656        H657   1.403       .  S
C661        C662   1.405       .  A
C661        C666   1.414       .  A
C662        C663   1.390       .  A
C662        H671   1.084       .  S
C663        C664   1.399       .  A
C663        S667   1.800       .  S
C664        C665   1.405       .  A
C665        C666   1.406       .  A
C665        H672   1.083       .  S
C666        S668   1.805       .  S
S667        H670   1.407       .  S
S668        H669   1.403       .  S
C673        C674   1.403       .  A
C673        C678   1.421       .  A
C674        C675   1.403       .  A
C674        H683   1.083       .  S
C675        C676   1.414       .  A
C675        S679   1.803       .  S
C676        C677   1.385       .  A
C677        C678   1.386       .  A
C677        H684   1.084       .  S
C678        S680   1.794       .  S
S679        H682   1.404       .  S
S680        H681   1.395       .  S
C685        C686   1.408       .  A
C685        C690   1.404       .  A
C686        C687   1.403       .  A
C686        H695   1.083       .  S
C687        C688   1.408       .  A
C687        S691   1.802       .  S
C688        C689   1.405       .  A
C689        C690   1.393       .  A
C689        H696   1.079       .  S
C690        S692   1.806       .  S
S691        H694   1.406       .  S
S692        H693   1.404       .  S
C697        C698   1.403       .  A
C697        C702   1.409       .  A
C698        C699   1.389       .  A
C698        H707   1.078       .  S
C699        C700   1.398       .  A
C699        S703   1.803       .  S
C700        C701   1.407       .  A
C701        C702   1.411       .  A
C701        H708   1.082       .  S
C702        S704   1.803       .  S
S703        H706   1.397   1_565  S
S704        H705   1.407       .  S
C709        C710   1.386       .  A
C709        C714   1.414       .  A
C710        C711   1.387       .  A
C710        H719   1.084       .  S
C711        C712   1.421       .  A
C711        S715   1.794       .  S
C712        C713   1.403       .  A
C713        C714   1.404       .  A
C713        H720   1.083       .  S
C714        S716   1.801       .  S
S715        H718   1.393       .  S
S716        H717   1.405       .  S
C721        C722   1.400       .  A
C721        C726   1.419       .  A
C722        C723   1.401       .  A
C722        H731   1.083       .  S
C723        C724   1.415       .  A
C723        S727   1.804       .  S
C724        C725   1.384       .  A
C725        C726   1.385       .  A
C725        H732   1.084       .  S
C726        S728   1.791       .  S
S727        H730   1.401       .  S
S728        H729   1.391       .  S
C733        C734   1.406       .  A
C733        C738   1.411       .  A
C734        C735   1.390       .  A
C734        H743   1.079       .  S
C735        C736   1.399       .  A
C735        S739   1.805       .  S
C736        C737   1.405       .  A
C737        C738   1.403       .  A
C737        H744   1.083       .  S
C738        S740   1.805       .  S
S739        H742   1.402   1_556  S
S740        H741   1.403       .  S
C745        C746   1.406       .  A
C745        C750   1.412       .  A
C746        C747   1.390       .  A
C746        H755   1.082       .  S
C747        C748   1.399       .  A
C747        S751   1.800       .  S
C748        C749   1.406       .  A
C749        C750   1.405       .  A
C749        H756   1.083       .  S
C750        S752   1.803       .  S
S751        H754   1.404   1_556  S
S752        H753   1.405       .  S
C757        C758   1.386       .  A
C757        C762   1.415       .  A
C758        C759   1.386       .  A
C758        H767   1.083       .  S
C759        C760   1.420       .  A
C759        S763   1.792       .  S
C760        C761   1.405       .  A
C761        C762   1.404       .  A
C761        H768   1.083       .  S
C762        S764   1.800       .  S
S763        H766   1.396       .  S
S764        H765   1.406       .  S
C769        C770   1.383       .  A
C769        C774   1.415       .  A
C770        C771   1.385       .  A
C770        H779   1.084       .  S
C771        C772   1.420       .  A
C771        S775   1.787       .  S
C772        C773   1.402       .  A
C773        C774   1.403       .  A
C773        H780   1.083       .  S
C774        S776   1.803       .  S
S775        H778   1.392       .  S
S776        H777   1.403       .  S
C781        C782   1.407       .  A
C781        C786   1.414       .  A
C782        C783   1.388       .  A
C782        H791   1.078       .  S
C783        C784   1.402       .  A
C783        S787   1.806       .  S
C784        C785   1.407       .  A
C785        C786   1.406       .  A
C785        H792   1.083       .  S
C786        S788   1.804       .  S
S787        H790   1.405       .  S
S788        H789   1.405       .  S
C793        C794   1.405       .  A
C793        C798   1.423       .  A
C794        C795   1.404       .  A
C794        H803   1.084       .  S
C795        C796   1.415       .  A
C795        S799   1.801       .  S
C796        C797   1.382       .  A
C797        C798   1.383       .  A
C797        H804   1.084       .  S
C798        S800   1.789       .  S
S799        H802   1.405       .  S
S800        H801   1.379       .  S
C805        C806   1.387       .  A
C805        C810   1.411       .  A
C806        C807   1.386       .  A
C806        H815   1.085       .  S
C807        C808   1.422       .  A
C807        S811   1.786   1_655  S
C808        C809   1.409       .  A
C809        C810   1.408       .  A
C809        H816   1.083       .  S
C810        S812   1.801       .  S
S811        H814   1.390       .  S
S812        H813   1.406       .  S
