geometry optimzed in LAMMPS
_audit_creation_date              2020-11-30 
_audit_creation_method            'lammps2cif' 
_symmetry_space_group_name_H-M    'P1' 
_symmetry_Int_Tables_number       1 
_symmetry_cell_setting            triclinic 
loop_ 
_symmetry_equiv_pos_as_xyz 
  x,y,z 
_cell_length_a                    43.38819756969272 
_cell_length_b                    43.40253916732521 
_cell_length_c                    43.394732463906784 
_cell_angle_alpha                 90.011919065159 
_cell_angle_beta                  89.95328012963503 
_cell_angle_gamma                 89.96840419948812 
loop_ 
_atom_site_label 
_atom_site_type_symbol 
_atom_site_fract_x 
_atom_site_fract_y 
_atom_site_fract_z 
_atom_site_charge 
O1          O  0.00076384  0.45629602  0.27502191    -0.71550
O2          O  0.49878463  0.04375134  0.27508327    -0.71770
O3          O  0.45615274  0.49882446  0.27509293    -0.71630
O4          O  0.04365504  0.00117402  0.27493608    -0.71630
O5          O  0.04360428  0.49891804  0.22492780    -0.71590
O6          O  0.45611176  0.00120885  0.22507600    -0.71610
O7          O  0.00083906  0.04377743  0.22499314    -0.71550
O8          O  0.49900423  0.45633606  0.22492263    -0.71740
V9          V  0.49986810  0.50002198  0.27407252     1.35240
V10         V  0.49987473  0.00006057  0.22594398     1.35170
C11         C  0.49984237  0.44152850  0.24995913     0.77690
C12         C  0.49974751  0.05854822  0.25004414     0.77750
C13         C  0.44122967  0.99993940  0.25011333     0.77620
C14         C  0.05855973  0.99997643  0.24989713     0.77580
O15         O  0.47505848  0.20634149  0.24834810    -0.71550
O16         O  0.47520665  0.29389566  0.25148384    -0.71770
O17         O  0.47509182  0.25192642  0.20618013    -0.71630
O18         O  0.47499665  0.24850745  0.29356604    -0.71630
O19         O  0.02492085  0.25161626  0.29367205    -0.71590
O20         O  0.02505115  0.24822926  0.20614781    -0.71610
O21         O  0.02511715  0.29366890  0.24831394    -0.71550
O22         O  0.02495999  0.20634413  0.25142668    -0.71740
V23         V  0.47602262  0.25014387  0.24988618     1.35240
V24         V  0.02406766  0.24998737  0.24989757     1.35170
C25         C  0.00004866  0.19134548  0.24988176     0.77690
C26         C  0.00023427  0.30876649  0.24986354     0.77750
C27         C  0.50007011  0.25013027  0.19129181     0.77620
C28         C  0.49990070  0.25001357  0.30858737     0.77580
O29         O  0.24806809  0.47541081  0.29386929    -0.71550
O30         O  0.25177499  0.47483957  0.20643486    -0.71770
O31         O  0.29365036  0.47509944  0.25221133    -0.71630
O32         O  0.20621517  0.47508487  0.24808123    -0.71630
O33         O  0.20620642  0.02501811  0.25208614    -0.71590
O34         O  0.29363324  0.02496812  0.24755997    -0.71610
O35         O  0.24799327  0.02469592  0.20610880    -0.71550
O36         O  0.25190447  0.02524946  0.29351420    -0.71740
V37         V  0.24993075  0.47603042  0.25014158     1.35240
V38         V  0.24992825  0.02406006  0.24982466     1.35170
C39         C  0.24998417  0.00044633  0.30868863     0.77690
C40         C  0.24987453  0.99966075  0.19128272     0.77750
C41         C  0.30850370  0.50002658  0.24981658     0.77620
C42         C  0.19135919  0.50004955  0.25015114     0.77580
O43         O  0.22494834  0.45643733  0.99936020    -0.71550
O44         O  0.22482754  0.04382250  0.50101947    -0.71770
O45         O  0.22473585  0.50085961  0.45635825    -0.71630
O46         O  0.22500022  0.99928365  0.04382706    -0.71630
O47         O  0.27509953  0.50111961  0.04361456    -0.71590
O48         O  0.27484705  0.99925535  0.45616012    -0.71610
O49         O  0.27484268  0.04392590  0.99887023    -0.71550
O50         O  0.27493645  0.45636188  0.50071914    -0.71740
V51         V  0.22585208  0.50011295  0.00011041     1.35240
V52         V  0.27397534  0.00015759  0.49986672     1.35170
C53         C  0.24990580  0.44141248  0.00006067     0.77690
C54         C  0.24978807  0.05880372  0.50001787     0.77750
C55         C  0.24975362  0.00001895  0.44147586     0.77620
C56         C  0.25009300  0.00021989  0.05850813     0.77580
O57         O  0.99860873  0.22502375  0.45607346    -0.71550
O58         O  0.50097055  0.22463651  0.04355026    -0.71770
O59         O  0.45606171  0.22502052  0.50063845    -0.71630
O60         O  0.04350407  0.22462002  0.99876746    -0.71630
O61         O  0.04378920  0.27454975  0.50117991    -0.71590
O62         O  0.45629236  0.27512215  0.99912602    -0.71610
O63         O  0.99871427  0.27465640  0.04379868    -0.71550
O64         O  0.50141035  0.27505515  0.45632290    -0.71740
V65         V  0.49978884  0.22578883  0.49978959     1.35240
V66         V  0.50003942  0.27389119  0.00007843     1.35170
C67         C  0.50007354  0.25009811  0.44138480     0.77690
C68         C  0.49989147  0.24958617  0.05856511     0.77750
C69         C  0.44138158  0.25014097  0.99986171     0.77620
C70         C  0.05863559  0.24947980  0.99996266     0.77580
O71         O  0.25045919  0.29388100  0.02500528    -0.71550
O72         O  0.24880096  0.20640389  0.02514285    -0.71770
O73         O  0.29349999  0.24952728  0.02540514    -0.71630
O74         O  0.20601885  0.25092244  0.02472996    -0.71630
O75         O  0.20648564  0.24940766  0.47461928    -0.71590
O76         O  0.29398423  0.25047567  0.47538112    -0.71610
O77         O  0.25109770  0.20628256  0.47507683    -0.71550
O78         O  0.24976120  0.29375859  0.47487847    -0.71740
V79         V  0.24973593  0.25015969  0.02409966     1.35240
V80         V  0.25027305  0.25000288  0.47595755     1.35170
C81         C  0.25021164  0.30860669  0.99991370     0.77690
C82         C  0.24998795  0.19152171  0.00013699     0.77750
C83         C  0.30868989  0.25004158  0.00051869     0.77620
C84         C  0.19146104  0.25016514  0.99956466     0.77580
C85         C  0.35900676  0.24133392  0.47397115    -0.21080
C86         C  0.34276801  0.25009747  0.00063820    -0.09120
C87         C  0.35945242  0.25899868  0.02702970     0.29740
C88         C  0.39167198  0.25933742  0.02647225    -0.21080
C89         C  0.40764238  0.25026421  0.99993540    -0.09130
C90         C  0.39121472  0.24112379  0.47369045     0.29750
F91         F  0.40634576  0.23242475  0.44771333    -0.19650
H92         H  0.34675330  0.23432420  0.45338448     0.18110
H93         H  0.40422061  0.26639225  0.04687657     0.18120
F94         F  0.34472491  0.26785272  0.05318090    -0.19640
C95         C  0.10902420  0.27741009  0.00064624    -0.21080
C96         C  0.09279433  0.24935521  0.99986184    -0.09120
C97         C  0.10961172  0.22152771  0.49891991     0.29740
C98         C  0.14183588  0.22199731  0.49864456    -0.21080
C99         C  0.15772601  0.25002901  0.99939800    -0.09130
C100        C  0.14123040  0.27775727  0.00047374     0.29750
F101        F  0.15628917  0.30512885  0.00130852    -0.19650
H102        H  0.09680081  0.29916426  0.00139931     0.18110
H103        H  0.15444827  0.20044513  0.49797783     0.18120
F104        F  0.09507329  0.19385180  0.49834881    -0.19760
C105        C  0.27783266  0.39092056  0.49865072    -0.21080
C106        C  0.24982644  0.40725602  0.00006318    -0.09120
C107        C  0.22197026  0.39053959  0.00143590     0.29740
C108        C  0.22234540  0.35835297  0.00139503    -0.21080
C109        C  0.25027421  0.34233289  0.99988185    -0.09130
C110        C  0.27807329  0.35869095  0.49851647     0.29750
F111        F  0.30538172  0.34346425  0.49713503    -0.19650
H112        H  0.29960495  0.40308299  0.49756743     0.18110
H113        H  0.20077157  0.34588057  0.00253918     0.18120
F114        F  0.19433590  0.40513714  0.00295988    -0.19640
C115        C  0.27423308  0.10911237  0.48664891    -0.21080
C116        C  0.24970272  0.09283889  0.50015923    -0.09120
C117        C  0.22531306  0.10941442  0.01376885     0.29740
C118        C  0.22579657  0.14162582  0.01411899    -0.21080
C119        C  0.25005850  0.15772034  0.50017479    -0.09130
C120        C  0.27423458  0.14133052  0.48626733     0.29750
F121        F  0.29815430  0.15651532  0.47298761    -0.19650
H122        H  0.29322159  0.09686488  0.47600564     0.18110
H123        H  0.20698239  0.15406388  0.02486945     0.18120
F124        F  0.20132659  0.09453989  0.02726397    -0.19640
C125        C  0.25031105  0.02806239  0.39181602    -0.21080
C126        C  0.24971206  0.00006259  0.40776365    -0.09120
C127        C  0.24929180  0.47226970  0.39135790     0.29740
C128        C  0.24936828  0.47255804  0.35914196    -0.21080
C129        C  0.24995351  0.00060058  0.34284867    -0.09130
C130        C  0.25045394  0.02846522  0.35960453     0.29750
F131        F  0.25098054  0.05611984  0.34501807    -0.19650
H132        H  0.25069311  0.04964590  0.40437794     0.18110
H133        H  0.24902556  0.45077620  0.34695807     0.18120
F134        F  0.24882358  0.44491597  0.40652809    -0.19640
C135        C  0.25260915  0.02747591  0.14088175    -0.21080
C136        C  0.24992995  0.99953980  0.15713789    -0.09120
C137        C  0.24732523  0.47181307  0.14037069     0.29740
C138        C  0.24730514  0.47225226  0.10815681    -0.21080
C139        C  0.25015887  0.00013179  0.09222850    -0.09130
C140        C  0.25284927  0.02777972  0.10866533     0.29750
F141        F  0.25544319  0.05502994  0.09352384    -0.19650
H142        H  0.25467959  0.04914007  0.15310429     0.18110
H143        H  0.24515452  0.45078402  0.09557829     0.18120
F144        F  0.24449689  0.44430085  0.15496356    -0.19640
C145        C  0.47436414  0.23924310  0.39156074    -0.21080
C146        C  0.50010976  0.25018117  0.40760762    -0.09120
C147        C  0.02580601  0.26091444  0.39120881     0.29740
C148        C  0.02574084  0.26049037  0.35898107    -0.21080
C149        C  0.49978251  0.24996604  0.34269015    -0.09130
C150        C  0.47393614  0.23945745  0.35935323     0.29750
F151        F  0.44843295  0.22894392  0.34462328    -0.19650
H152        H  0.45442160  0.23085766  0.40403736     0.18110
H153        H  0.04590961  0.26869427  0.34675778     0.18120
F154        F  0.05117493  0.27111349  0.40639431    -0.19640
C155        C  0.01843217  0.22901126  0.14123981    -0.21080
C156        C  0.50004255  0.25014110  0.15739796    -0.09120
C157        C  0.48165688  0.27108998  0.14093209     0.29740
C158        C  0.48204536  0.27107058  0.10871295    -0.21080
C159        C  0.49997751  0.24954149  0.09251347    -0.09130
C160        C  0.01806096  0.22832368  0.10902185     0.29750
F161        F  0.03594886  0.20748522  0.09401314    -0.19650
H162        H  0.03269879  0.21268504  0.15362748     0.18110
H163        H  0.46796200  0.28759089  0.09637260     0.18120
F164        F  0.46396782  0.29205826  0.15600346    -0.19640
C165        C  0.14143478  0.48501766  0.22658070    -0.21080
C166        C  0.15751493  0.00002820  0.25021013    -0.09120
C167        C  0.14105546  0.01488707  0.27377426     0.29740
C168        C  0.10882325  0.01441122  0.27378931    -0.21080
C169        C  0.09259702  0.99987604  0.24984359    -0.09130
C170        C  0.10921093  0.48530295  0.22606195     0.29750
F171        F  0.09435205  0.47078918  0.20268293    -0.19650
H172        H  0.15389320  0.47348401  0.20825436     0.18110
H173        H  0.09651938  0.02578983  0.29230616     0.18120
F174        F  0.15617746  0.02914689  0.29714484    -0.19640
C175        C  0.35847553  0.48317437  0.27213788    -0.21080
C176        C  0.34236851  0.00000272  0.24975901    -0.09120
C177        C  0.35883901  0.01670049  0.22746234     0.29740
C178        C  0.39105990  0.01620524  0.22741844    -0.21080
C179        C  0.40725384  0.99983884  0.25014839    -0.09130
C180        C  0.39069274  0.48344719  0.27269972     0.29750
F181        F  0.40562134  0.46714245  0.29482668    -0.19650
H182        H  0.34604519  0.47022218  0.28950093     0.18110
H183        H  0.40339492  0.02900618  0.20988135     0.18120
F184        F  0.34375481  0.03279848  0.20528845    -0.19640
C185        C  0.47316738  0.35920736  0.25676585    -0.21080
C186        C  0.00034750  0.34290314  0.24982248    -0.09120
C187        C  0.02736134  0.35961364  0.24288237     0.29740
C188        C  0.02693247  0.39181764  0.24274839    -0.21080
C189        C  0.99985378  0.40780575  0.24991981    -0.09130
C190        C  0.47294778  0.39142278  0.25700914     0.29750
F191        F  0.44643384  0.40661532  0.26379425    -0.19650
H192        H  0.45207073  0.34702133  0.26221450     0.18110
H193        H  0.04783401  0.40434409  0.23725146     0.18120
F194        F  0.05413333  0.34497069  0.23594769    -0.19640
C195        C  0.02770691  0.10823547  0.24981240    -0.21080
C196        C  0.49972269  0.09226236  0.25004638    -0.09120
C197        C  0.47188976  0.10864334  0.25018579     0.29740
C198        C  0.47212305  0.14086852  0.25006906    -0.21080
C199        C  0.00015546  0.15718033  0.24990412    -0.09130
C200        C  0.02806186  0.14043584  0.24979115     0.29750
F201        F  0.05572718  0.15502212  0.24954591    -0.19650
H202        H  0.04932031  0.09570231  0.24967849     0.18110
H203        H  0.45032597  0.15304350  0.25017600     0.18120
F204        F  0.44455268  0.09343399  0.25034867    -0.19640
O205        O  0.00076383  0.45629602  0.77502192    -0.71550
O206        O  0.49878468  0.04375137  0.77508319    -0.71770
O207        O  0.45615274  0.49882444  0.77509292    -0.71630
O208        O  0.04365507  0.00117402  0.77493605    -0.71630
O209        O  0.04360428  0.49891802  0.72492779    -0.71590
O210        O  0.45611180  0.00120889  0.72507595    -0.71610
O211        O  0.00083914  0.04377743  0.72499308    -0.71550
O212        O  0.49900425  0.45633606  0.72492264    -0.71740
V213        V  0.49986809  0.50002199  0.77407251     1.35240
V214        V  0.49987477  0.00006057  0.72594393     1.35170
C215        C  0.49984241  0.44152850  0.74995914     0.77690
C216        C  0.49974758  0.05854823  0.75004406     0.77750
C217        C  0.44122971  0.99993944  0.75011327     0.77620
C218        C  0.05855977  0.99997639  0.74989710     0.77580
O219        O  0.47505850  0.20634151  0.74834806    -0.71550
O220        O  0.47520667  0.29389568  0.75148386    -0.71770
O221        O  0.47509183  0.25192648  0.70618013    -0.71630
O222        O  0.47499667  0.24850745  0.79356604    -0.71630
O223        O  0.02492085  0.25161626  0.79367203    -0.71590
O224        O  0.02505112  0.24822931  0.70614779    -0.71610
O225        O  0.02511712  0.29366891  0.74831394    -0.71550
O226        O  0.02496000  0.20634415  0.75142664    -0.71740
V227        V  0.47602264  0.25014389  0.74988617     1.35240
V228        V  0.02406765  0.24998739  0.74989756     1.35170
C229        C  0.00004867  0.19134549  0.74988171     0.77690
C230        C  0.00023424  0.30876650  0.74986356     0.77750
C231        C  0.50007011  0.25013034  0.69129180     0.77620
C232        C  0.49990072  0.25001357  0.80858736     0.77580
O233        O  0.24806809  0.47541085  0.79386930    -0.71550
O234        O  0.25177500  0.47483960  0.70643487    -0.71770
O235        O  0.29365036  0.47509947  0.75221135    -0.71630
O236        O  0.20621518  0.47508490  0.74808124    -0.71630
O237        O  0.20620645  0.02501806  0.75208615    -0.71590
O238        O  0.29363326  0.02496812  0.74755994    -0.71610
O239        O  0.24799328  0.02469590  0.70610880    -0.71550
O240        O  0.25190450  0.02524943  0.79351419    -0.71740
V241        V  0.24993076  0.47603045  0.75014159     1.35240
V242        V  0.24992827  0.02406004  0.74982466     1.35170
C243        C  0.24998421  0.00044630  0.80868862     0.77690
C244        C  0.24987455  0.99966073  0.69128272     0.77750
C245        C  0.30850370  0.50002661  0.74981660     0.77620
C246        C  0.19135920  0.50004958  0.75015114     0.77580
O247        O  0.22494834  0.45643734  0.49936023    -0.71550
O248        O  0.22482753  0.04382249  0.00101944    -0.71770
O249        O  0.22473586  0.50085965  0.95635825    -0.71630
O250        O  0.22500023  0.99928363  0.54382706    -0.71630
O251        O  0.27509952  0.50111962  0.54361457    -0.71590
O252        O  0.27484703  0.99925531  0.95616011    -0.71610
O253        O  0.27484269  0.04392591  0.49887026    -0.71550
O254        O  0.27493646  0.45636187  0.00071913    -0.71740
V255        V  0.22585207  0.50011295  0.50011041     1.35240
V256        V  0.27397533  0.00015757  0.99986672     1.35170
C257        C  0.24990579  0.44141248  0.50006069     0.77690
C258        C  0.24978806  0.05880370  0.00001784     0.77750
C259        C  0.24975361  0.00001890  0.94147586     0.77620
C260        C  0.25009300  0.00021987  0.55850812     0.77580
O261        O  0.99860874  0.22502370  0.95607344    -0.71550
O262        O  0.50097051  0.22463658  0.54355027    -0.71770
O263        O  0.45606173  0.22502047  0.00063847    -0.71630
O264        O  0.04350405  0.22462011  0.49876748    -0.71630
O265        O  0.04378922  0.27454966  0.00117991    -0.71590
O266        O  0.45629234  0.27512220  0.49912597    -0.71610
O267        O  0.99871422  0.27465650  0.54379866    -0.71550
O268        O  0.50141034  0.27505513  0.95632292    -0.71740
V269        V  0.49978885  0.22578878  0.99978959     1.35240
V270        V  0.50003940  0.27389124  0.50007841     1.35170
C271        C  0.50007352  0.25009810  0.94138481     0.77690
C272        C  0.49989143  0.24958625  0.55856510     0.77750
C273        C  0.44138156  0.25014101  0.49986167     0.77620
C274        C  0.05863557  0.24947990  0.49996267     0.77580
O275        O  0.25045921  0.29388102  0.52500526    -0.71550
O276        O  0.24880092  0.20640390  0.52514284    -0.71770
O277        O  0.29349998  0.24952727  0.52540511    -0.71630
O278        O  0.20601884  0.25092249  0.52472996    -0.71630
O279        O  0.20648567  0.24940764  0.97461927    -0.71590
O280        O  0.29398426  0.25047566  0.97538115    -0.71610
O281        O  0.25109773  0.20628255  0.97507684    -0.71550
O282        O  0.24976122  0.29375858  0.97487849    -0.71740
V283        V  0.24973592  0.25015971  0.52409964     1.35240
V284        V  0.25027308  0.25000287  0.97595756     1.35170
C285        C  0.25021164  0.30860670  0.49991368     0.77690
C286        C  0.24998791  0.19152172  0.50013698     0.77750
C287        C  0.30868987  0.25004158  0.50051866     0.77620
C288        C  0.19146102  0.25016519  0.49956467     0.77580
C289        C  0.35900677  0.24133385  0.97397121    -0.21080
C290        C  0.34276800  0.25009747  0.50063816    -0.09120
C291        C  0.35945240  0.25899863  0.52702968     0.29740
C292        C  0.39167197  0.25933739  0.52647223    -0.21080
C293        C  0.40764236  0.25026425  0.49993535    -0.09130
C294        C  0.39121473  0.24112370  0.97369051     0.29750
F295        F  0.40634577  0.23242460  0.94771341    -0.19650
H296        H  0.34675332  0.23432409  0.95338455     0.18110
H297        H  0.40422059  0.26639218  0.54687656     0.18120
F298        F  0.34472490  0.26785261  0.55318090    -0.19640
C299        C  0.10902418  0.27741018  0.50064629    -0.21080
C300        C  0.09279431  0.24935530  0.49986186    -0.09120
C301        C  0.10961175  0.22152762  0.99891992     0.29740
C302        C  0.14183591  0.22199723  0.99864457    -0.21080
C303        C  0.15772598  0.25002908  0.49939802    -0.09130
C304        C  0.14123038  0.27775734  0.50047378     0.29750
F305        F  0.15628917  0.30512892  0.50130858    -0.19650
H306        H  0.09680080  0.29916435  0.50139937     0.18110
H307        H  0.15444831  0.20044506  0.99797786     0.18120
F308        F  0.09507333  0.19385171  0.99834884    -0.19760
C309        C  0.27783266  0.39092055  0.99865069    -0.21080
C310        C  0.24982643  0.40725603  0.50006321    -0.09120
C311        C  0.22197025  0.39053960  0.50143589     0.29740
C312        C  0.22234539  0.35835298  0.50139500    -0.21080
C313        C  0.25027421  0.34233290  0.49988184    -0.09130
C314        C  0.27807329  0.35869094  0.99851645     0.29750
F315        F  0.30538172  0.34346424  0.99713498    -0.19650
H316        H  0.29960496  0.40308298  0.99756737     0.18110
H317        H  0.20077157  0.34588058  0.50253913     0.18120
F318        F  0.19433589  0.40513714  0.50295985    -0.19640
C319        C  0.27423308  0.10911235  0.98664888    -0.21080
C320        C  0.24970271  0.09283887  0.00015919    -0.09120
C321        C  0.22531306  0.10941443  0.51376889     0.29740
C322        C  0.22579655  0.14162583  0.51411901    -0.21080
C323        C  0.25005853  0.15772032  0.00017478    -0.09130
C324        C  0.27423460  0.14133050  0.98626732     0.29750
F325        F  0.29815432  0.15651530  0.97298760    -0.19650
H326        H  0.29322158  0.09686486  0.97600560     0.18110
H327        H  0.20698236  0.15406389  0.52486946     0.18120
F328        F  0.20132659  0.09453990  0.52726401    -0.19640
C329        C  0.25031103  0.02806234  0.89181601    -0.21080
C330        C  0.24971204  0.00006254  0.90776365    -0.09120
C331        C  0.24929181  0.47226975  0.89135790     0.29740
C332        C  0.24936829  0.47255808  0.85914196    -0.21080
C333        C  0.24995354  0.00060054  0.84284866    -0.09130
C334        C  0.25045395  0.02846517  0.85960453     0.29750
F335        F  0.25098056  0.05611980  0.84501807    -0.19650
H336        H  0.25069308  0.04964585  0.90437794     0.18110
H337        H  0.24902557  0.45077625  0.84695807     0.18120
F338        F  0.24882359  0.44491602  0.90652809    -0.19640
C339        C  0.25260911  0.02747589  0.64088174    -0.21080
C340        C  0.24992995  0.99953979  0.65713788    -0.09120
C341        C  0.24732525  0.47181310  0.64037070     0.29740
C342        C  0.24730516  0.47225229  0.60815682    -0.21080
C343        C  0.25015887  0.00013177  0.59222850    -0.09130
C344        C  0.25284923  0.02777970  0.60866532     0.29750
F345        F  0.25544311  0.05502992  0.59352383    -0.19650
H346        H  0.25467951  0.04914006  0.65310429     0.18110
H347        H  0.24515456  0.45078405  0.59557829     0.18120
F348        F  0.24449695  0.44430088  0.65496357    -0.19640
C349        C  0.47436413  0.23924312  0.89156073    -0.21080
C350        C  0.50010974  0.25018118  0.90760762    -0.09120
C351        C  0.02580603  0.26091441  0.89120881     0.29740
C352        C  0.02574086  0.26049035  0.85898106    -0.21080
C353        C  0.49978252  0.24996604  0.84269015    -0.09130
C354        C  0.47393614  0.23945746  0.85935322     0.29750
F355        F  0.44843294  0.22894395  0.84462326    -0.19650
H356        H  0.45442158  0.23085768  0.90403734     0.18110
H357        H  0.04590964  0.26869423  0.84675778     0.18120
F358        F  0.05117495  0.27111345  0.90639432    -0.19640
C359        C  0.01843209  0.22901133  0.64123979    -0.21080
C360        C  0.50004254  0.25014119  0.65739796    -0.09120
C361        C  0.48165690  0.27109009  0.64093209     0.29740
C362        C  0.48204536  0.27107070  0.60871295    -0.21080
C363        C  0.49997747  0.24954159  0.59251346    -0.09130
C364        C  0.01806089  0.22832376  0.60902184     0.29750
F365        F  0.03594876  0.20748529  0.59401313    -0.19650
H366        H  0.03269869  0.21268509  0.65362745     0.18110
H367        H  0.46796202  0.28759103  0.59637261     0.18120
F368        F  0.46396786  0.29205839  0.65600347    -0.19640
C369        C  0.14143480  0.48501770  0.72658068    -0.21080
C370        C  0.15751496  0.00002813  0.75021013    -0.09120
C371        C  0.14105549  0.01488702  0.77377426     0.29740
C372        C  0.10882328  0.01441117  0.77378930    -0.21080
C373        C  0.09259706  0.99987599  0.74984358    -0.09130
C374        C  0.10921094  0.48530297  0.72606194     0.29750
F375        F  0.09435207  0.47078922  0.70268291    -0.19650
H376        H  0.15389321  0.47348408  0.70825434     0.18110
H377        H  0.09651942  0.02578980  0.79230614     0.18120
F378        F  0.15617749  0.02914685  0.79714483    -0.19640
C379        C  0.35847553  0.48317442  0.77213792    -0.21080
C380        C  0.34236854  0.00000275  0.74975897    -0.09120
C381        C  0.35883904  0.01670052  0.72746230     0.29740
C382        C  0.39105993  0.01620528  0.72741839    -0.21080
C383        C  0.40725388  0.99983889  0.75014833    -0.09130
C384        C  0.39069273  0.48344720  0.77269975     0.29750
F385        F  0.40562133  0.46714249  0.79482673    -0.19650
H386        H  0.34604517  0.47022226  0.78950099     0.18110
H387        H  0.40339495  0.02900623  0.70988130     0.18120
F388        F  0.34375483  0.03279851  0.70528841    -0.19640
C389        C  0.47316740  0.35920738  0.75676585    -0.21080
C390        C  0.00034747  0.34290314  0.74982250    -0.09120
C391        C  0.02736132  0.35961364  0.74288241     0.29740
C392        C  0.02693246  0.39181764  0.74274844    -0.21080
C393        C  0.99985377  0.40780575  0.74991983    -0.09130
C394        C  0.47294781  0.39142280  0.75700914     0.29750
F395        F  0.44643386  0.40661535  0.76379423    -0.19650
H396        H  0.45207074  0.34702136  0.76221448     0.18110
H397        H  0.04783401  0.40434408  0.73725152     0.18120
F398        F  0.05413332  0.34497068  0.73594775    -0.19640
C399        C  0.02770696  0.10823549  0.74981229    -0.21080
C400        C  0.49972275  0.09226238  0.75004629    -0.09120
C401        C  0.47188981  0.10864335  0.75018573     0.29740
C402        C  0.47212309  0.14086853  0.75006900    -0.21080
C403        C  0.00015549  0.15718034  0.74990405    -0.09130
C404        C  0.02806190  0.14043586  0.74979106     0.29750
F405        F  0.05572721  0.15502216  0.74954580    -0.19650
H406        H  0.04932036  0.09570235  0.74967837     0.18110
H407        H  0.45032601  0.15304350  0.75017596     0.18120
F408        F  0.44455274  0.09343399  0.75034863    -0.19640
O409        O  0.00076383  0.95629602  0.27502191    -0.71550
O410        O  0.49878471  0.54375135  0.27508325    -0.71770
O411        O  0.45615271  0.99882443  0.27509292    -0.71630
O412        O  0.04365506  0.50117400  0.27493607    -0.71630
O413        O  0.04360426  0.99891806  0.22492781    -0.71590
O414        O  0.45611178  0.50120888  0.22507600    -0.71610
O415        O  0.00083909  0.54377743  0.22499313    -0.71550
O416        O  0.49900425  0.95633607  0.22492263    -0.71740
V417        V  0.49986806  0.00002198  0.27407253     1.35240
V418        V  0.49987474  0.50006056  0.22594397     1.35170
C419        C  0.49984241  0.94152850  0.24995912     0.77690
C420        C  0.49974760  0.55854822  0.25004412     0.77750
C421        C  0.44122969  0.49993944  0.25011333     0.77620
C422        C  0.05855975  0.49997640  0.24989711     0.77580
O423        O  0.47505856  0.70634150  0.24834808    -0.71550
O424        O  0.47520671  0.79389567  0.25148383    -0.71770
O425        O  0.47509189  0.75192644  0.20618012    -0.71630
O426        O  0.47499671  0.74850746  0.29356603    -0.71630
O427        O  0.02492085  0.75161628  0.29367203    -0.71590
O428        O  0.02505113  0.74822929  0.20614779    -0.71610
O429        O  0.02511714  0.79366891  0.24831392    -0.71550
O430        O  0.02495999  0.70634415  0.25142667    -0.71740
V431        V  0.47602269  0.75014388  0.24988617     1.35240
V432        V  0.02406766  0.74998739  0.24989756     1.35170
C433        C  0.00004866  0.69134550  0.24988174     0.77690
C434        C  0.00023427  0.80876651  0.24986354     0.77750
C435        C  0.50007018  0.75013030  0.19129180     0.77620
C436        C  0.49990075  0.75001359  0.30858736     0.77580
O437        O  0.24806807  0.97541087  0.29386930    -0.71550
O438        O  0.25177496  0.97483962  0.20643486    -0.71770
O439        O  0.29365033  0.97509948  0.25221133    -0.71630
O440        O  0.20621515  0.97508492  0.24808124    -0.71630
O441        O  0.20620645  0.52501805  0.25208614    -0.71590
O442        O  0.29363326  0.52496807  0.24755996    -0.71610
O443        O  0.24799329  0.52469587  0.20610881    -0.71550
O444        O  0.25190449  0.52524940  0.29351420    -0.71740
V445        V  0.24993073  0.97603047  0.25014158     1.35240
V446        V  0.24992827  0.52406001  0.24982466     1.35170
C447        C  0.24998419  0.50044627  0.30868863     0.77690
C448        C  0.24987455  0.49966070  0.19128272     0.77750
C449        C  0.30850367  0.00002662  0.24981658     0.77620
C450        C  0.19135917  0.00004961  0.25015114     0.77580
O451        O  0.22494835  0.95643732  0.99936023    -0.71550
O452        O  0.22482755  0.54382250  0.50101946    -0.71770
O453        O  0.22473586  0.00085964  0.45635824    -0.71630
O454        O  0.22500023  0.49928362  0.04382706    -0.71630
O455        O  0.27509952  0.00111963  0.04361456    -0.71590
O456        O  0.27484704  0.49925529  0.45616012    -0.71610
O457        O  0.27484271  0.54392589  0.99887025    -0.71550
O458        O  0.27493648  0.95636190  0.50071911    -0.71740
V459        V  0.22585207  0.00011294  0.00011040     1.35240
V460        V  0.27397533  0.50015757  0.49986673     1.35170
C461        C  0.24990581  0.94141248  0.00006069     0.77690
C462        C  0.24978808  0.55880371  0.50001785     0.77750
C463        C  0.24975361  0.50001890  0.44147586     0.77620
C464        C  0.25009301  0.50021986  0.05850813     0.77580
O465        O  0.99860876  0.72502374  0.45607344    -0.71550
O466        O  0.50097056  0.72463654  0.04355026    -0.71770
O467        O  0.45606174  0.72502049  0.50063844    -0.71630
O468        O  0.04350407  0.72462009  0.99876746    -0.71630
O469        O  0.04378921  0.77454973  0.50117992    -0.71590
O470        O  0.45629234  0.77512215  0.99912599    -0.71610
O471        O  0.99871422  0.77465647  0.04379866    -0.71550
O472        O  0.50141036  0.77505515  0.45632290    -0.71740
V473        V  0.49978886  0.72578881  0.49978958     1.35240
V474        V  0.50003939  0.77389121  0.00007841     1.35170
C475        C  0.50007356  0.75009811  0.44138479     0.77690
C476        C  0.49989146  0.74958621  0.05856510     0.77750
C477        C  0.44138157  0.75014096  0.99986168     0.77620
C478        C  0.05863558  0.74947988  0.99996266     0.77580
O479        O  0.25045922  0.79388101  0.02500525    -0.71550
O480        O  0.24880093  0.70640389  0.02514282    -0.71770
O481        O  0.29349998  0.74952726  0.02540510    -0.71630
O482        O  0.20601885  0.75092248  0.02472994    -0.71630
O483        O  0.20648566  0.74940768  0.47461926    -0.71590
O484        O  0.29398425  0.75047564  0.47538111    -0.71610
O485        O  0.25109770  0.70628256  0.47507682    -0.71550
O486        O  0.24976125  0.79375859  0.47487846    -0.71740
V487        V  0.24973593  0.75015970  0.02409963     1.35240
V488        V  0.25027307  0.75000288  0.47595753     1.35170
C489        C  0.25021168  0.80860670  0.99991367     0.77690
C490        C  0.24998791  0.69152172  0.00013695     0.77750
C491        C  0.30868988  0.75004155  0.00051864     0.77620
C492        C  0.19146103  0.75016520  0.99956464     0.77580
C493        C  0.35900677  0.74133386  0.47397115    -0.21080
C494        C  0.34276800  0.75009743  0.00063816    -0.09120
C495        C  0.35945240  0.75899859  0.02702968     0.29740
C496        C  0.39167197  0.75933734  0.02647224    -0.21080
C497        C  0.40764237  0.75026418  0.99993537    -0.09130
C498        C  0.39121474  0.74112372  0.47369044     0.29750
F499        F  0.40634578  0.73242466  0.44771333    -0.19650
H500        H  0.34675332  0.73432413  0.45338448     0.18110
H501        H  0.40422059  0.76639213  0.04687657     0.18120
F502        F  0.34472490  0.76785259  0.05318089    -0.19640
C503        C  0.10902419  0.77741018  0.00064625    -0.21080
C504        C  0.09279432  0.74935530  0.99986185    -0.09120
C505        C  0.10961175  0.72152770  0.49891991     0.29740
C506        C  0.14183591  0.72199731  0.49864455    -0.21080
C507        C  0.15772599  0.75002909  0.99939800    -0.09130
C508        C  0.14123039  0.77775735  0.00047373     0.29750
F509        F  0.15628916  0.80512893  0.00130852    -0.19650
H510        H  0.09680080  0.79916435  0.00139931     0.18110
H511        H  0.15444830  0.70044514  0.49797782     0.18120
F512        F  0.09507333  0.69385180  0.49834881    -0.19760
C513        C  0.27783270  0.89092057  0.49865070    -0.21080
C514        C  0.24982647  0.90725602  0.00006320    -0.09120
C515        C  0.22197029  0.89053959  0.00143591     0.29740
C516        C  0.22234544  0.85835297  0.00139502    -0.21080
C517        C  0.25027426  0.84233290  0.99988184    -0.09130
C518        C  0.27807334  0.85869096  0.49851645     0.29750
F519        F  0.30538178  0.84346426  0.49713501    -0.19650
H520        H  0.29960499  0.90308300  0.49756740     0.18110
H521        H  0.20077161  0.84588056  0.00253917     0.18120
F522        F  0.19433593  0.90513713  0.00295989    -0.19640
C523        C  0.27423309  0.60911236  0.48664888    -0.21080
C524        C  0.24970274  0.59283888  0.50015921    -0.09120
C525        C  0.22531309  0.60941442  0.01376889     0.29740
C526        C  0.22579657  0.64162581  0.01411900    -0.21080
C527        C  0.25005852  0.65772033  0.50017477    -0.09130
C528        C  0.27423459  0.64133052  0.48626730     0.29750
F529        F  0.29815430  0.65651532  0.47298757    -0.19650
H530        H  0.29322159  0.59686487  0.47600560     0.18110
H531        H  0.20698239  0.65406387  0.02486947     0.18120
F532        F  0.20132664  0.59453988  0.02726404    -0.19640
C533        C  0.25031100  0.52806233  0.39181601    -0.21080
C534        C  0.24971205  0.50006253  0.40776365    -0.09120
C535        C  0.24929176  0.97226977  0.39135790     0.29740
C536        C  0.24936823  0.97255810  0.35914196    -0.21080
C537        C  0.24995353  0.50060052  0.34284867    -0.09130
C538        C  0.25045391  0.52846515  0.35960453     0.29750
F539        F  0.25098049  0.55611978  0.34501807    -0.19650
H540        H  0.25069303  0.54964584  0.40437793     0.18110
H541        H  0.24902547  0.95077627  0.34695806     0.18120
F542        F  0.24882350  0.94491604  0.40652809    -0.19640
C543        C  0.25260919  0.52747586  0.14088176    -0.21080
C544        C  0.24992996  0.49953976  0.15713789    -0.09120
C545        C  0.24732524  0.97181311  0.14037069     0.29740
C546        C  0.24730516  0.97225230  0.10815681    -0.21080
C547        C  0.25015888  0.50013175  0.09222851    -0.09130
C548        C  0.25284931  0.52777967  0.10866533     0.29750
F549        F  0.25544326  0.55502989  0.09352385    -0.19650
H550        H  0.25467965  0.54914002  0.15310430     0.18110
H551        H  0.24515456  0.95078405  0.09557829     0.18120
F552        F  0.24449693  0.94430089  0.15496356    -0.19640
C553        C  0.47436416  0.73924314  0.39156072    -0.21080
C554        C  0.50010978  0.75018119  0.40760761    -0.09120
C555        C  0.02580604  0.76091443  0.39120880     0.29740
C556        C  0.02574087  0.76049038  0.35898106    -0.21080
C557        C  0.49978255  0.74996607  0.34269014    -0.09130
C558        C  0.47393617  0.73945749  0.35935322     0.29750
F559        F  0.44843297  0.72894399  0.34462325    -0.19650
H560        H  0.45442162  0.73085770  0.40403733     0.18110
H561        H  0.04590964  0.76869426  0.34675777     0.18120
F562        F  0.05117497  0.77111347  0.40639430    -0.19640
C563        C  0.01843212  0.72901130  0.14123979    -0.21080
C564        C  0.50004261  0.75014115  0.15739795    -0.09120
C565        C  0.48165696  0.77109005  0.14093209     0.29740
C566        C  0.48204541  0.77107065  0.10871296    -0.21080
C567        C  0.49997752  0.74954154  0.09251346    -0.09130
C568        C  0.01806091  0.72832373  0.10902184     0.29750
F569        F  0.03594878  0.70748526  0.09401313    -0.19650
H570        H  0.03269872  0.71268507  0.15362746     0.18110
H571        H  0.46796207  0.78759099  0.09637261     0.18120
F572        F  0.46396793  0.79205835  0.15600348    -0.19640
C573        C  0.14143477  0.98501773  0.22658070    -0.21080
C574        C  0.15751495  0.50002814  0.25021012    -0.09120
C575        C  0.14105548  0.51488705  0.27377424     0.29740
C576        C  0.10882327  0.51441120  0.27378929    -0.21080
C577        C  0.09259704  0.49987601  0.24984358    -0.09130
C578        C  0.10921091  0.98530300  0.22606195     0.29750
F579        F  0.09435203  0.97078924  0.20268293    -0.19650
H580        H  0.15389318  0.97348409  0.20825435     0.18110
H581        H  0.09651941  0.52578984  0.29230612     0.18120
F582        F  0.15617748  0.52914689  0.29714480    -0.19640
C583        C  0.35847550  0.98317440  0.27213789    -0.21080
C584        C  0.34236853  0.50000269  0.24975901    -0.09120
C585        C  0.35883902  0.51670049  0.22746235     0.29740
C586        C  0.39105992  0.51620527  0.22741846    -0.21080
C587        C  0.40725386  0.49983887  0.25014840    -0.09130
C588        C  0.39069271  0.98344718  0.27269973     0.29750
F589        F  0.40562130  0.96714245  0.29482670    -0.19650
H590        H  0.34604515  0.97022223  0.28950095     0.18110
H591        H  0.40339494  0.52900624  0.20988139     0.18120
F592        F  0.34375482  0.53279849  0.20528847    -0.19640
C593        C  0.47316744  0.85920737  0.25676584    -0.21080
C594        C  0.00034750  0.84290315  0.24982248    -0.09120
C595        C  0.02736134  0.85961365  0.24288234     0.29740
C596        C  0.02693247  0.89181765  0.24274837    -0.21080
C597        C  0.99985378  0.90780575  0.24991980    -0.09130
C598        C  0.47294783  0.89142279  0.25700913     0.29750
F599        F  0.44643389  0.90661533  0.26379426    -0.19650
H600        H  0.45207078  0.84702134  0.26221450     0.18110
H601        H  0.04783401  0.90434410  0.23725143     0.18120
F602        F  0.05413332  0.84497069  0.23594765    -0.19640
C603        C  0.02770693  0.60823549  0.24981238    -0.21080
C604        C  0.49972279  0.59226237  0.25004636    -0.09120
C605        C  0.47188985  0.60864335  0.25018577     0.29740
C606        C  0.47212314  0.64086852  0.25006903    -0.21080
C607        C  0.00015546  0.65718035  0.24990410    -0.09130
C608        C  0.02806188  0.64043586  0.24979114     0.29750
F609        F  0.05572719  0.65502215  0.24954590    -0.19650
H610        H  0.04932034  0.59570234  0.24967848     0.18110
H611        H  0.45032605  0.65304350  0.25017598     0.18120
F612        F  0.44455277  0.59343399  0.25034865    -0.19640
O613        O  0.00076385  0.95629603  0.77502189    -0.71550
O614        O  0.49878466  0.54375136  0.77508323    -0.71770
O615        O  0.45615275  0.99882446  0.77509287    -0.71630
O616        O  0.04365506  0.50117400  0.77493607    -0.71630
O617        O  0.04360430  0.99891801  0.72492778    -0.71590
O618        O  0.45611178  0.50120884  0.72507600    -0.71610
O619        O  0.00083909  0.54377741  0.72499310    -0.71550
O620        O  0.49900426  0.95633607  0.72492260    -0.71740
V621        V  0.49986810  0.00002201  0.77407248     1.35240
V622        V  0.49987474  0.50006056  0.72594397     1.35170
C623        C  0.49984242  0.94152852  0.74995910     0.77690
C624        C  0.49974753  0.55854822  0.75004409     0.77750
C625        C  0.44122969  0.49993940  0.75011333     0.77620
C626        C  0.05855976  0.49997639  0.74989711     0.77580
O627        O  0.47505845  0.70634152  0.74834806    -0.71550
O628        O  0.47520666  0.79389569  0.75148384    -0.71770
O629        O  0.47509181  0.75192648  0.70618011    -0.71630
O630        O  0.47499663  0.74850746  0.79356603    -0.71630
O631        O  0.02492081  0.75161625  0.79367203    -0.71590
O632        O  0.02505109  0.74822929  0.70614779    -0.71610
O633        O  0.02511710  0.79366890  0.74831394    -0.71550
O634        O  0.02495995  0.70634414  0.75142664    -0.71740
V635        V  0.47602261  0.75014390  0.74988616     1.35240
V636        V  0.02406762  0.74998738  0.74989756     1.35170
C637        C  0.00004862  0.69134549  0.74988171     0.77690
C638        C  0.00023423  0.80876650  0.74986355     0.77750
C639        C  0.50007010  0.75013032  0.69129180     0.77620
C640        C  0.49990068  0.75001356  0.80858736     0.77580
O641        O  0.24806812  0.97541084  0.79386928    -0.71550
O642        O  0.25177500  0.97483960  0.70643485    -0.71770
O643        O  0.29365038  0.97509948  0.75221131    -0.71630
O644        O  0.20621519  0.97508488  0.74808123    -0.71630
O645        O  0.20620645  0.52501808  0.75208614    -0.71590
O646        O  0.29363326  0.52496810  0.74755997    -0.71610
O647        O  0.24799330  0.52469590  0.70610881    -0.71550
O648        O  0.25190449  0.52524944  0.79351420    -0.71740
V649        V  0.24993077  0.97603045  0.75014157     1.35240
V650        V  0.24992827  0.52406004  0.74982467     1.35170
C651        C  0.24998419  0.50044631  0.80868864     0.77690
C652        C  0.24987456  0.49966073  0.69128273     0.77750
C653        C  0.30850371  0.00002664  0.74981655     0.77620
C654        C  0.19135921  0.00004955  0.75015115     0.77580
O655        O  0.22494836  0.95643734  0.49936020    -0.71550
O656        O  0.22482756  0.54382249  0.00101949    -0.71770
O657        O  0.22473584  0.00085959  0.95635824    -0.71630
O658        O  0.22500022  0.49928365  0.54382707    -0.71630
O659        O  0.27509953  0.00111961  0.54361456    -0.71590
O660        O  0.27484705  0.49925530  0.95616012    -0.71610
O661        O  0.27484270  0.54392589  0.49887024    -0.71550
O662        O  0.27493647  0.95636188  0.00071913    -0.71740
V663        V  0.22585208  0.00011295  0.50011040     1.35240
V664        V  0.27397534  0.50015756  0.99986673     1.35170
C665        C  0.24990582  0.94141249  0.50006066     0.77690
C666        C  0.24978809  0.55880371  0.00001787     0.77750
C667        C  0.24975362  0.50001893  0.94147586     0.77620
C668        C  0.25009300  0.50021989  0.55850813     0.77580
O669        O  0.99860872  0.72502372  0.95607345    -0.71550
O670        O  0.50097053  0.72463655  0.54355025    -0.71770
O671        O  0.45606173  0.72502047  0.00063847    -0.71630
O672        O  0.04350408  0.72462009  0.49876747    -0.71630
O673        O  0.04378920  0.77454973  0.00117991    -0.71590
O674        O  0.45629235  0.77512217  0.49912597    -0.71610
O675        O  0.99871421  0.77465646  0.54379866    -0.71550
O676        O  0.50141032  0.77505513  0.95632290    -0.71740
V677        V  0.49978885  0.72578880  0.99978958     1.35240
V678        V  0.50003941  0.77389122  0.50007841     1.35170
C679        C  0.50007351  0.75009809  0.94138480     0.77690
C680        C  0.49989144  0.74958622  0.55856509     0.77750
C681        C  0.44138158  0.75014097  0.49986165     0.77620
C682        C  0.05863559  0.74947988  0.49996267     0.77580
O683        O  0.25045924  0.79388102  0.52500525    -0.71550
O684        O  0.24880094  0.70640390  0.52514283    -0.71770
O685        O  0.29350000  0.74952726  0.52540510    -0.71630
O686        O  0.20601886  0.75092249  0.52472995    -0.71630
O687        O  0.20648565  0.74940770  0.97461925    -0.71590
O688        O  0.29398424  0.75047563  0.97538111    -0.71610
O689        O  0.25109767  0.70628256  0.97507681    -0.71550
O690        O  0.24976126  0.79375859  0.97487847    -0.71740
V691        V  0.24973594  0.75015970  0.52409963     1.35240
V692        V  0.25027307  0.75000288  0.97595753     1.35170
C693        C  0.25021169  0.80860671  0.49991367     0.77690
C694        C  0.24998792  0.69152172  0.50013697     0.77750
C695        C  0.30868989  0.75004155  0.50051864     0.77620
C696        C  0.19146104  0.75016520  0.49956465     0.77580
C697        C  0.35900677  0.74133386  0.97397116    -0.21080
C698        C  0.34276802  0.75009743  0.50063815    -0.09120
C699        C  0.35945242  0.75899861  0.52702967     0.29740
C700        C  0.39167199  0.75933736  0.52647221    -0.21080
C701        C  0.40764238  0.75026420  0.49993534    -0.09130
C702        C  0.39121473  0.74112372  0.97369046     0.29750
F703        F  0.40634578  0.73242468  0.94771335    -0.19650
H704        H  0.34675332  0.73432414  0.95338448     0.18110
H705        H  0.40422061  0.76639216  0.54687653     0.18120
F706        F  0.34472492  0.76785260  0.55318088    -0.19640
C707        C  0.10902420  0.77741018  0.50064628    -0.21080
C708        C  0.09279433  0.74935529  0.49986186    -0.09120
C709        C  0.10961174  0.72152771  0.99891992     0.29740
C710        C  0.14183589  0.72199732  0.99864457    -0.21080
C711        C  0.15772601  0.75002909  0.49939801    -0.09130
C712        C  0.14123040  0.77775735  0.50047377     0.29750
F713        F  0.15628917  0.80512893  0.50130857    -0.19650
H714        H  0.09680081  0.79916434  0.50139937     0.18110
H715        H  0.15444829  0.70044514  0.99797786     0.18120
F716        F  0.09507332  0.69385180  0.99834885    -0.19760
C717        C  0.27783269  0.89092056  0.99865070    -0.21080
C718        C  0.24982648  0.90725603  0.50006318    -0.09120
C719        C  0.22197030  0.89053960  0.50143587     0.29740
C720        C  0.22234544  0.85835298  0.50139498    -0.21080
C721        C  0.25027426  0.84233291  0.49988183    -0.09130
C722        C  0.27807333  0.85869095  0.99851644     0.29750
F723        F  0.30538177  0.84346426  0.99713497    -0.19650
H724        H  0.29960499  0.90308300  0.99756738     0.18110
H725        H  0.20077163  0.84588058  0.50253912     0.18120
F726        F  0.19433594  0.90513714  0.50295983    -0.19640
C727        C  0.27423309  0.60911236  0.98664888    -0.21080
C728        C  0.24970274  0.59283888  0.00015922    -0.09120
C729        C  0.22531309  0.60941442  0.51376889     0.29740
C730        C  0.22579658  0.64162582  0.51411901    -0.21080
C731        C  0.25005850  0.65772033  0.00017475    -0.09130
C732        C  0.27423458  0.64133052  0.98626729     0.29750
F733        F  0.29815428  0.65651532  0.97298755    -0.19650
H734        H  0.29322159  0.59686487  0.97600560     0.18110
H735        H  0.20698240  0.65406388  0.52486948     0.18120
F736        F  0.20132663  0.59453989  0.52726403    -0.19640
C737        C  0.25031101  0.52806237  0.89181602    -0.21080
C738        C  0.24971206  0.50006257  0.90776366    -0.09120
C739        C  0.24929176  0.97226972  0.89135789     0.29740
C740        C  0.24936825  0.97255806  0.85914195    -0.21080
C741        C  0.24995353  0.50060057  0.84284868    -0.09130
C742        C  0.25045392  0.52846520  0.85960454     0.29750
F743        F  0.25098049  0.55611982  0.84501808    -0.19650
H744        H  0.25069304  0.54964588  0.90437794     0.18110
H745        H  0.24902551  0.95077622  0.84695805     0.18120
F746        F  0.24882350  0.94491598  0.90652807    -0.19640
C747        C  0.25260917  0.52747590  0.64088176    -0.21080
C748        C  0.24992997  0.49953979  0.65713790    -0.09120
C749        C  0.24732528  0.97181309  0.64037069     0.29740
C750        C  0.24730519  0.97225228  0.60815681    -0.21080
C751        C  0.25015888  0.50013178  0.59222851    -0.09130
C752        C  0.25284928  0.52777971  0.60866534     0.29750
F753        F  0.25544320  0.55502993  0.59352385    -0.19650
H754        H  0.25467961  0.54914005  0.65310430     0.18110
H755        H  0.24515463  0.95078402  0.59557829     0.18120
F756        F  0.24449700  0.94430087  0.65496356    -0.19640
C757        C  0.47436411  0.73924310  0.89156072    -0.21080
C758        C  0.50010972  0.75018116  0.90760761    -0.09120
C759        C  0.02580599  0.76091442  0.89120880     0.29740
C760        C  0.02574082  0.76049035  0.85898105    -0.21080
C761        C  0.49978248  0.74996603  0.84269014    -0.09130
C762        C  0.47393611  0.73945744  0.85935322     0.29750
F763        F  0.44843291  0.72894392  0.84462326    -0.19650
H764        H  0.45442157  0.73085765  0.90403734     0.18110
H765        H  0.04590959  0.76869425  0.84675776     0.18120
F766        F  0.05117491  0.77111347  0.90639430    -0.19640
C767        C  0.01843209  0.72901130  0.64123979    -0.21080
C768        C  0.50004254  0.75014117  0.65739795    -0.09120
C769        C  0.48165689  0.77109007  0.64093208     0.29740
C770        C  0.48204536  0.77107066  0.60871294    -0.21080
C771        C  0.49997748  0.74954155  0.59251346    -0.09130
C772        C  0.01806089  0.72832373  0.60902184     0.29750
F773        F  0.03594877  0.70748526  0.59401314    -0.19650
H774        H  0.03269870  0.71268507  0.65362746     0.18110
H775        H  0.46796201  0.78759099  0.59637259     0.18120
F776        F  0.46396785  0.79205836  0.65600345    -0.19640
C777        C  0.14143481  0.98501766  0.72658070    -0.21080
C778        C  0.15751495  0.50002816  0.75021013    -0.09120
C779        C  0.14105548  0.51488703  0.77377427     0.29740
C780        C  0.10882327  0.51441117  0.77378931    -0.21080
C781        C  0.09259705  0.49987600  0.74984358    -0.09130
C782        C  0.10921095  0.98530294  0.72606194     0.29750
F783        F  0.09435208  0.97078919  0.70268292    -0.19650
H784        H  0.15389322  0.97348403  0.70825436     0.18110
H785        H  0.09651940  0.52578978  0.79230616     0.18120
F786        F  0.15617748  0.52914684  0.79714485    -0.19640
C787        C  0.35847555  0.98317444  0.77213784    -0.21080
C788        C  0.34236853  0.50000271  0.74975903    -0.09120
C789        C  0.35883903  0.51670046  0.72746234     0.29740
C790        C  0.39105992  0.51620521  0.72741844    -0.21080
C791        C  0.40725386  0.49983884  0.75014840    -0.09130
C792        C  0.39069275  0.98344723  0.77269968     0.29750
F793        F  0.40562135  0.96714250  0.79482664    -0.19650
H794        H  0.34604520  0.97022226  0.78950090     0.18110
H795        H  0.40339494  0.52900614  0.70988134     0.18120
F796        F  0.34375483  0.53279843  0.70528844    -0.19640
C797        C  0.47316742  0.85920739  0.75676584    -0.21080
C798        C  0.00034747  0.84290314  0.74982249    -0.09120
C799        C  0.02736132  0.85961364  0.74288239     0.29740
C800        C  0.02693246  0.89181764  0.74274841    -0.21080
C801        C  0.99985377  0.90780575  0.74991981    -0.09130
C802        C  0.47294783  0.89142281  0.75700912     0.29750
F803        F  0.44643389  0.90661536  0.76379422    -0.19650
H804        H  0.45207075  0.84702137  0.76221449     0.18110
H805        H  0.04783401  0.90434408  0.73725149     0.18120
F806        F  0.05413331  0.84497067  0.73594773    -0.19640
C807        C  0.02770691  0.60823549  0.74981232    -0.21080
C808        C  0.49972269  0.59226237  0.75004632    -0.09120
C809        C  0.47188975  0.60864334  0.75018574     0.29740
C810        C  0.47212303  0.64086852  0.75006900    -0.21080
C811        C  0.00015543  0.65718033  0.74990406    -0.09130
C812        C  0.02806185  0.64043585  0.74979107     0.29750
F813        F  0.05572716  0.65502215  0.74954581    -0.19650
H814        H  0.04932032  0.59570234  0.74967840     0.18110
H815        H  0.45032594  0.65304349  0.75017595     0.18120
F816        F  0.44455267  0.59343398  0.75034863    -0.19640
O817        O  0.50076380  0.45629600  0.27502192    -0.71550
O818        O  0.99878463  0.04375135  0.27508326    -0.71770
O819        O  0.95615274  0.49882445  0.27509292    -0.71630
O820        O  0.54365503  0.00117400  0.27493610    -0.71630
O821        O  0.54360428  0.49891799  0.22492780    -0.71590
O822        O  0.95611176  0.00120885  0.22507600    -0.71610
O823        O  0.50083906  0.04377742  0.22499315    -0.71550
O824        O  0.99900426  0.45633607  0.22492262    -0.71740
V825        V  0.99986809  0.50002200  0.27407251     1.35240
V826        V  0.99987473  0.00006058  0.22594397     1.35170
C827        C  0.99984242  0.44152851  0.24995912     0.77690
C828        C  0.99974751  0.05854823  0.25004413     0.77750
C829        C  0.94122967  0.99993940  0.25011332     0.77620
C830        C  0.55855973  0.99997641  0.24989714     0.77580
O831        O  0.97505850  0.20634151  0.24834809    -0.71550
O832        O  0.97520670  0.29389568  0.25148383    -0.71770
O833        O  0.97509186  0.25192644  0.20618012    -0.71630
O834        O  0.97499667  0.24850747  0.29356603    -0.71630
O835        O  0.52492083  0.25161625  0.29367204    -0.71590
O836        O  0.52505111  0.24822926  0.20614781    -0.71610
O837        O  0.52511710  0.29366889  0.24831394    -0.71550
O838        O  0.52495998  0.20634413  0.25142668    -0.71740
V839        V  0.97602265  0.25014389  0.24988617     1.35240
V840        V  0.52406763  0.24998736  0.24989757     1.35170
C841        C  0.50004865  0.19134547  0.24988176     0.77690
C842        C  0.50023422  0.30876648  0.24986355     0.77750
C843        C  0.00007015  0.25013028  0.19129181     0.77620
C844        C  0.99990071  0.25001358  0.30858737     0.77580
O845        O  0.74806809  0.47541081  0.29386929    -0.71550
O846        O  0.75177499  0.47483957  0.20643486    -0.71770
O847        O  0.79365036  0.47509944  0.25221133    -0.71630
O848        O  0.70621517  0.47508487  0.24808123    -0.71630
O849        O  0.70620643  0.02501811  0.25208615    -0.71590
O850        O  0.79363324  0.02496811  0.24755996    -0.71610
O851        O  0.74799327  0.02469592  0.20610881    -0.71550
O852        O  0.75190448  0.02524946  0.29351420    -0.71740
V853        V  0.74993075  0.47603042  0.25014158     1.35240
V854        V  0.74992825  0.02406006  0.24982467     1.35170
C855        C  0.74998417  0.00044633  0.30868863     0.77690
C856        C  0.74987453  0.99966075  0.19128273     0.77750
C857        C  0.80850370  0.50002658  0.24981658     0.77620
C858        C  0.69135919  0.50004955  0.25015114     0.77580
O859        O  0.72494834  0.45643734  0.99936019    -0.71550
O860        O  0.72482758  0.04382250  0.50101946    -0.71770
O861        O  0.72473584  0.50085961  0.45635825    -0.71630
O862        O  0.72500024  0.99928365  0.04382706    -0.71630
O863        O  0.77509953  0.50111962  0.04361456    -0.71590
O864        O  0.77484708  0.99925533  0.45616012    -0.71610
O865        O  0.77484268  0.04392591  0.99887023    -0.71550
O866        O  0.77493644  0.45636187  0.50071914    -0.71740
V867        V  0.72585208  0.50011296  0.00011041     1.35240
V868        V  0.77397537  0.00015757  0.49986672     1.35170
C869        C  0.74990579  0.44141249  0.00006067     0.77690
C870        C  0.74978811  0.05880371  0.50001786     0.77750
C871        C  0.74975365  0.00001894  0.44147586     0.77620
C872        C  0.75009302  0.00021990  0.05850813     0.77580
O873        O  0.49860874  0.22502374  0.45607346    -0.71550
O874        O  0.00097054  0.22463650  0.04355025    -0.71770
O875        O  0.95606172  0.22502052  0.50063846    -0.71630
O876        O  0.54350407  0.22462004  0.99876746    -0.71630
O877        O  0.54378921  0.27454972  0.50117992    -0.71590
O878        O  0.95629236  0.27512215  0.99912601    -0.71610
O879        O  0.49871426  0.27465641  0.04379868    -0.71550
O880        O  0.00141033  0.27505516  0.45632290    -0.71740
V881        V  0.99978884  0.22578884  0.49978959     1.35240
V882        V  0.00003942  0.27389118  0.00007842     1.35170
C883        C  0.00007352  0.25009812  0.44138480     0.77690
C884        C  0.99989147  0.24958616  0.05856510     0.77750
C885        C  0.94138158  0.25014096  0.99986169     0.77620
C886        C  0.55863558  0.24947983  0.99996266     0.77580
O887        O  0.75045920  0.29388101  0.02500527    -0.71550
O888        O  0.74880095  0.20640389  0.02514284    -0.71770
O889        O  0.79349999  0.24952728  0.02540512    -0.71630
O890        O  0.70601885  0.25092246  0.02472996    -0.71630
O891        O  0.70648565  0.24940763  0.47461926    -0.71590
O892        O  0.79398424  0.25047568  0.47538112    -0.71610
O893        O  0.75109773  0.20628255  0.47507682    -0.71550
O894        O  0.74976119  0.29375858  0.47487847    -0.71740
V895        V  0.74973593  0.25015970  0.02409965     1.35240
V896        V  0.75027306  0.25000288  0.47595754     1.35170
C897        C  0.75021164  0.30860670  0.99991369     0.77690
C898        C  0.74998793  0.19152172  0.00013698     0.77750
C899        C  0.80868988  0.25004158  0.00051867     0.77620
C900        C  0.69146104  0.25016516  0.99956466     0.77580
C901        C  0.85900676  0.24133392  0.47397115    -0.21080
C902        C  0.84276801  0.25009747  0.00063818    -0.09120
C903        C  0.85945241  0.25899868  0.02702968     0.29740
C904        C  0.89167198  0.25933742  0.02647223    -0.21080
C905        C  0.90764238  0.25026421  0.99993538    -0.09130
C906        C  0.89121472  0.24112379  0.47369045     0.29750
F907        F  0.90634577  0.23242474  0.44771334    -0.19650
H908        H  0.84675331  0.23432420  0.45338448     0.18110
H909        H  0.90422061  0.26639225  0.04687655     0.18120
F910        F  0.84472491  0.26785272  0.05318088    -0.19640
C911        C  0.60902419  0.27741012  0.00064625    -0.21080
C912        C  0.59279432  0.24935524  0.99986185    -0.09120
C913        C  0.60961172  0.22152767  0.49891991     0.29740
C914        C  0.64183588  0.22199727  0.49864455    -0.21080
C915        C  0.65772600  0.25002904  0.99939801    -0.09130
C916        C  0.64123039  0.27775729  0.00047374     0.29750
F917        F  0.65628916  0.30512888  0.00130853    -0.19650
H918        H  0.59680080  0.29916429  0.00139931     0.18110
H919        H  0.65444827  0.20044509  0.49797781     0.18120
F920        F  0.59507329  0.19385177  0.49834881    -0.19760
C921        C  0.77783264  0.39092055  0.49865073    -0.21080
C922        C  0.74982643  0.40725603  0.00006318    -0.09120
C923        C  0.72197025  0.39053960  0.00143589     0.29740
C924        C  0.72234539  0.35835298  0.00139502    -0.21080
C925        C  0.75027421  0.34233290  0.99988184    -0.09130
C926        C  0.77807327  0.35869094  0.49851647     0.29750
F927        F  0.80538171  0.34346424  0.49713503    -0.19650
H928        H  0.79960494  0.40308298  0.49756743     0.18110
H929        H  0.70077157  0.34588058  0.00253917     0.18120
F930        F  0.69433589  0.40513715  0.00295987    -0.19640
C931        C  0.77423312  0.10911235  0.48664889    -0.21080
C932        C  0.74970276  0.09283888  0.50015921    -0.09120
C933        C  0.72531304  0.10941443  0.01376885     0.29740
C934        C  0.72579655  0.14162582  0.01411898    -0.21080
C935        C  0.75005855  0.15772033  0.50017476    -0.09130
C936        C  0.77423462  0.14133051  0.48626731     0.29750
F937        F  0.79815434  0.15651531  0.47298758    -0.19650
H938        H  0.79322163  0.09686486  0.47600561     0.18110
H939        H  0.70698236  0.15406389  0.02486944     0.18120
F940        F  0.70132657  0.09453990  0.02726396    -0.19640
C941        C  0.75031109  0.02806239  0.39181602    -0.21080
C942        C  0.74971209  0.00006258  0.40776365    -0.09120
C943        C  0.74929176  0.47226970  0.39135790     0.29740
C944        C  0.74936825  0.47255804  0.35914196    -0.21080
C945        C  0.74995352  0.00060058  0.34284867    -0.09130
C946        C  0.75045398  0.02846522  0.35960453     0.29750
F947        F  0.75098059  0.05611984  0.34501807    -0.19650
H948        H  0.75069316  0.04964589  0.40437794     0.18110
H949        H  0.74902550  0.45077620  0.34695807     0.18120
F950        F  0.74882350  0.44491597  0.40652809    -0.19640
C951        C  0.75260912  0.02747592  0.14088175    -0.21080
C952        C  0.74992995  0.99953981  0.15713789    -0.09120
C953        C  0.74732522  0.47181308  0.14037069     0.29740
C954        C  0.74730513  0.47225227  0.10815681    -0.21080
C955        C  0.75015890  0.00013180  0.09222850    -0.09130
C956        C  0.75284925  0.02777972  0.10866533     0.29750
F957        F  0.75544313  0.05502995  0.09352385    -0.19650
H958        H  0.75467952  0.04914008  0.15310430     0.18110
H959        H  0.74515451  0.45078402  0.09557828     0.18120
F960        F  0.74449688  0.44430085  0.15496356    -0.19640
C961        C  0.97436414  0.23924311  0.39156073    -0.21080
C962        C  0.00010974  0.25018118  0.40760761    -0.09120
C963        C  0.52580602  0.26091442  0.39120881     0.29740
C964        C  0.52574084  0.26049036  0.35898106    -0.21080
C965        C  0.99978252  0.24996605  0.34269015    -0.09130
C966        C  0.97393614  0.23945745  0.35935322     0.29750
F967        F  0.94843295  0.22894392  0.34462326    -0.19650
H968        H  0.95442160  0.23085766  0.40403734     0.18110
H969        H  0.54590962  0.26869425  0.34675777     0.18120
F970        F  0.55117495  0.27111347  0.40639431    -0.19640
C971        C  0.51843213  0.22901125  0.14123981    -0.21080
C972        C  0.00004259  0.25014112  0.15739796    -0.09120
C973        C  0.98165692  0.27108999  0.14093208     0.29740
C974        C  0.98204538  0.27107058  0.10871295    -0.21080
C975        C  0.99997752  0.24954149  0.09251347    -0.09130
C976        C  0.51806094  0.22832368  0.10902186     0.29750
F977        F  0.53594884  0.20748523  0.09401315    -0.19650
H978        H  0.53269875  0.21268503  0.15362748     0.18110
H979        H  0.96796202  0.28759089  0.09637260     0.18120
F980        F  0.96396786  0.29205827  0.15600346    -0.19640
C981        C  0.64143479  0.48501765  0.22658069    -0.21080
C982        C  0.65751492  0.00002820  0.25021014    -0.09120
C983        C  0.64105545  0.01488708  0.27377428     0.29740
C984        C  0.60882324  0.01441121  0.27378933    -0.21080
C985        C  0.59259702  0.99987603  0.24984361    -0.09130
C986        C  0.60921094  0.48530292  0.22606195     0.29750
F987        F  0.59435206  0.47078915  0.20268293    -0.19650
H988        H  0.65389321  0.47348401  0.20825436     0.18110
H989        H  0.59651938  0.02578983  0.29230618     0.18120
F990        F  0.65617746  0.02914690  0.29714486    -0.19640
C991        C  0.85847553  0.48317437  0.27213788    -0.21080
C992        C  0.84236851  0.00000271  0.24975901    -0.09120
C993        C  0.85883901  0.01670048  0.22746234     0.29740
C994        C  0.89105990  0.01620523  0.22741844    -0.21080
C995        C  0.90725384  0.99983884  0.25014839    -0.09130
C996        C  0.89069274  0.48344717  0.27269972     0.29750
F997        F  0.90562134  0.46714243  0.29482668    -0.19650
H998        H  0.84604518  0.47022218  0.28950093     0.18110
H999        H  0.90339492  0.02900618  0.20988135     0.18120
F1000       F  0.84375481  0.03279847  0.20528845    -0.19640
C1001       C  0.97316744  0.35920737  0.25676584    -0.21080
C1002       C  0.50034744  0.34290312  0.24982249    -0.09120
C1003       C  0.52736128  0.35961363  0.24288237     0.29740
C1004       C  0.52693241  0.39181763  0.24274840    -0.21080
C1005       C  0.49985373  0.40780573  0.24991982    -0.09130
C1006       C  0.97294784  0.39142279  0.25700913     0.29750
F1007       F  0.94643389  0.40661534  0.26379425    -0.19650
H1008       H  0.95207078  0.34702135  0.26221450     0.18110
H1009       H  0.54783396  0.40434407  0.23725148     0.18120
F1010       F  0.55413328  0.34497067  0.23594770    -0.19640
C1011       C  0.52770691  0.10823547  0.24981241    -0.21080
C1012       C  0.99972269  0.09226237  0.25004637    -0.09120
C1013       C  0.97188976  0.10864336  0.25018579     0.29740
C1014       C  0.97212305  0.14086853  0.25006905    -0.21080
C1015       C  0.50015545  0.15718032  0.24990412    -0.09130
C1016       C  0.52806187  0.14043583  0.24979116     0.29750
F1017       F  0.55572718  0.15502212  0.24954592    -0.19650
H1018       H  0.54932031  0.09570231  0.24967850     0.18110
H1019       H  0.95032597  0.15304352  0.25017600     0.18120
F1020       F  0.94455267  0.09343401  0.25034867    -0.19640
O1021       O  0.50076383  0.45629602  0.77502193    -0.71550
O1022       O  0.99878467  0.04375137  0.77508320    -0.71770
O1023       O  0.95615274  0.49882445  0.77509291    -0.71630
O1024       O  0.54365507  0.00117402  0.77493605    -0.71630
O1025       O  0.54360428  0.49891802  0.72492780    -0.71590
O1026       O  0.95611180  0.00120889  0.72507595    -0.71610
O1027       O  0.50083914  0.04377743  0.72499308    -0.71550
O1028       O  0.99900426  0.45633606  0.72492263    -0.71740
V1029       V  0.99986809  0.50002200  0.77407250     1.35240
V1030       V  0.99987477  0.00006057  0.72594393     1.35170
C1031       C  0.99984241  0.44152851  0.74995913     0.77690
C1032       C  0.99974758  0.05854823  0.75004406     0.77750
C1033       C  0.94122971  0.99993944  0.75011327     0.77620
C1034       C  0.55855977  0.99997639  0.74989710     0.77580
O1035       O  0.97505850  0.20634152  0.74834806    -0.71550
O1036       O  0.97520667  0.29389568  0.75148385    -0.71770
O1037       O  0.97509183  0.25192648  0.70618012    -0.71630
O1038       O  0.97499667  0.24850745  0.79356603    -0.71630
O1039       O  0.52492085  0.25161626  0.79367204    -0.71590
O1040       O  0.52505112  0.24822931  0.70614779    -0.71610
O1041       O  0.52511711  0.29366891  0.74831395    -0.71550
O1042       O  0.52496000  0.20634415  0.75142665    -0.71740
V1043       V  0.97602264  0.25014389  0.74988617     1.35240
V1044       V  0.52406764  0.24998739  0.74989756     1.35170
C1045       C  0.50004868  0.19134549  0.74988171     0.77690
C1046       C  0.50023423  0.30876650  0.74986356     0.77750
C1047       C  0.00007011  0.25013034  0.69129180     0.77620
C1048       C  0.99990072  0.25001357  0.80858736     0.77580
O1049       O  0.74806810  0.47541086  0.79386930    -0.71550
O1050       O  0.75177500  0.47483961  0.70643487    -0.71770
O1051       O  0.79365036  0.47509948  0.75221134    -0.71630
O1052       O  0.70621518  0.47508490  0.74808124    -0.71630
O1053       O  0.70620645  0.02501806  0.75208614    -0.71590
O1054       O  0.79363326  0.02496812  0.74755994    -0.71610
O1055       O  0.74799328  0.02469590  0.70610880    -0.71550
O1056       O  0.75190450  0.02524943  0.79351419    -0.71740
V1057       V  0.74993076  0.47603046  0.75014159     1.35240
V1058       V  0.74992827  0.02406004  0.74982466     1.35170
C1059       C  0.74998421  0.00044630  0.80868862     0.77690
C1060       C  0.74987455  0.99966073  0.69128271     0.77750
C1061       C  0.80850370  0.50002663  0.74981659     0.77620
C1062       C  0.69135920  0.50004958  0.75015114     0.77580
O1063       O  0.72494832  0.45643733  0.49936023    -0.71550
O1064       O  0.72482753  0.04382249  0.00101945    -0.71770
O1065       O  0.72473586  0.50085966  0.95635824    -0.71630
O1066       O  0.72500024  0.99928364  0.54382705    -0.71630
O1067       O  0.77509952  0.50111962  0.54361456    -0.71590
O1068       O  0.77484704  0.99925533  0.95616011    -0.71610
O1069       O  0.77484273  0.04392590  0.49887026    -0.71550
O1070       O  0.77493646  0.45636188  0.00071913    -0.71740
V1071       V  0.72585206  0.50011295  0.50011041     1.35240
V1072       V  0.77397535  0.00015759  0.99986672     1.35170
C1073       C  0.74990578  0.44141248  0.50006069     0.77690
C1074       C  0.74978805  0.05880371  0.00001784     0.77750
C1075       C  0.74975361  0.00001891  0.94147586     0.77620
C1076       C  0.75009302  0.00021987  0.55850812     0.77580
O1077       O  0.49860873  0.22502372  0.95607345    -0.71550
O1078       O  0.00097051  0.22463659  0.54355026    -0.71770
O1079       O  0.95606173  0.22502047  0.00063846    -0.71630
O1080       O  0.54350405  0.22462008  0.49876749    -0.71630
O1081       O  0.54378921  0.27454968  0.00117991    -0.71590
O1082       O  0.95629234  0.27512220  0.49912598    -0.71610
O1083       O  0.49871422  0.27465648  0.54379866    -0.71550
O1084       O  0.00141035  0.27505512  0.95632292    -0.71740
V1085       V  0.99978885  0.22578877  0.99978958     1.35240
V1086       V  0.00003939  0.27389125  0.50007841     1.35170
C1087       C  0.00007354  0.25009808  0.94138480     0.77690
C1088       C  0.99989143  0.24958626  0.55856510     0.77750
C1089       C  0.94138156  0.25014101  0.49986167     0.77620
C1090       C  0.55863557  0.24947987  0.49996268     0.77580
O1091       O  0.75045920  0.29388100  0.52500526    -0.71550
O1092       O  0.74880095  0.20640389  0.52514283    -0.71770
O1093       O  0.79349998  0.24952727  0.52540511    -0.71630
O1094       O  0.70601884  0.25092245  0.52472994    -0.71630
O1095       O  0.70648566  0.24940766  0.97461927    -0.71590
O1096       O  0.79398425  0.25047566  0.97538113    -0.71610
O1097       O  0.75109771  0.20628256  0.97507683    -0.71550
O1098       O  0.74976122  0.29375859  0.97487848    -0.71740
V1099       V  0.74973592  0.25015969  0.52409963     1.35240
V1100       V  0.75027307  0.25000288  0.97595755     1.35170
C1101       C  0.75021163  0.30860669  0.49991368     0.77690
C1102       C  0.74998795  0.19152171  0.50013696     0.77750
C1103       C  0.80868987  0.25004159  0.50051865     0.77620
C1104       C  0.69146103  0.25016515  0.49956465     0.77580
C1105       C  0.85900677  0.24133385  0.97397119    -0.21080
C1106       C  0.84276800  0.25009748  0.50063816    -0.09120
C1107       C  0.85945240  0.25899864  0.52702969     0.29740
C1108       C  0.89167197  0.25933739  0.52647223    -0.21080
C1109       C  0.90764236  0.25026425  0.49993536    -0.09130
C1110       C  0.89121473  0.24112371  0.97369049     0.29750
F1111       F  0.90634578  0.23242460  0.94771339    -0.19650
H1112       H  0.84675331  0.23432409  0.95338453     0.18110
H1113       H  0.90422059  0.26639217  0.54687657     0.18120
F1114       F  0.84472490  0.26785261  0.55318090    -0.19640
C1115       C  0.60902419  0.27741014  0.50064628    -0.21080
C1116       C  0.59279431  0.24935527  0.49986186    -0.09120
C1117       C  0.60961174  0.22152764  0.99891992     0.29740
C1118       C  0.64183590  0.22199726  0.99864457    -0.21080
C1119       C  0.65772599  0.25002904  0.49939800    -0.09130
C1120       C  0.64123039  0.27775730  0.50047377     0.29750
F1121       F  0.65628918  0.30512888  0.50130857    -0.19650
H1122       H  0.59680082  0.29916431  0.50139937     0.18110
H1123       H  0.65444830  0.20044508  0.99797786     0.18120
F1124       F  0.59507332  0.19385174  0.99834885    -0.19760
C1125       C  0.77783265  0.39092056  0.99865068    -0.21080
C1126       C  0.74982642  0.40725602  0.50006321    -0.09120
C1127       C  0.72197024  0.39053959  0.50143589     0.29740
C1128       C  0.72234538  0.35835297  0.50139500    -0.21080
C1129       C  0.75027420  0.34233289  0.49988184    -0.09130
C1130       C  0.77807328  0.35869095  0.99851644     0.29750
F1131       F  0.80538172  0.34346425  0.99713498    -0.19650
H1132       H  0.79960495  0.40308299  0.99756736     0.18110
H1133       H  0.70077156  0.34588057  0.50253913     0.18120
F1134       F  0.69433588  0.40513714  0.50295986    -0.19640
C1135       C  0.77423306  0.10911236  0.98664887    -0.21080
C1136       C  0.74970270  0.09283888  0.00015919    -0.09120
C1137       C  0.72531311  0.10941442  0.51376888     0.29740
C1138       C  0.72579660  0.14162582  0.51411900    -0.21080
C1139       C  0.75005850  0.15772033  0.00017477    -0.09130
C1140       C  0.77423458  0.14133051  0.98626731     0.29750
F1141       F  0.79815430  0.15651531  0.97298759    -0.19650
H1142       H  0.79322156  0.09686487  0.97600560     0.18110
H1143       H  0.70698242  0.15406388  0.52486946     0.18120
F1144       F  0.70132665  0.09453989  0.52726401    -0.19640
C1145       C  0.75031103  0.02806235  0.89181601    -0.21080
C1146       C  0.74971204  0.00006254  0.90776364    -0.09120
C1147       C  0.74929182  0.47226976  0.89135790     0.29740
C1148       C  0.74936830  0.47255809  0.85914196    -0.21080
C1149       C  0.74995354  0.00060054  0.84284866    -0.09130
C1150       C  0.75045395  0.02846518  0.85960452     0.29750
F1151       F  0.75098055  0.05611980  0.84501807    -0.19650
H1152       H  0.75069308  0.04964586  0.90437793     0.18110
H1153       H  0.74902558  0.45077625  0.84695807     0.18120
F1154       F  0.74882361  0.44491602  0.90652809    -0.19640
C1155       C  0.75260910  0.02747589  0.64088174    -0.21080
C1156       C  0.74992995  0.99953979  0.65713788    -0.09120
C1157       C  0.74732524  0.47181311  0.64037070     0.29740
C1158       C  0.74730514  0.47225230  0.60815682    -0.21080
C1159       C  0.75015888  0.00013177  0.59222850    -0.09130
C1160       C  0.75284923  0.02777970  0.60866532     0.29750
F1161       F  0.75544310  0.05502992  0.59352383    -0.19650
H1162       H  0.75467951  0.04914006  0.65310428     0.18110
H1163       H  0.74515452  0.45078405  0.59557830     0.18120
F1164       F  0.74449691  0.44430089  0.65496357    -0.19640
C1165       C  0.97436414  0.23924311  0.89156072    -0.21080
C1166       C  0.00010976  0.25018117  0.90760761    -0.09120
C1167       C  0.52580601  0.26091442  0.89120882     0.29740
C1168       C  0.52574085  0.26049035  0.85898107    -0.21080
C1169       C  0.99978253  0.24996604  0.84269015    -0.09130
C1170       C  0.97393615  0.23945746  0.85935322     0.29750
F1171       F  0.94843295  0.22894395  0.84462326    -0.19650
H1172       H  0.95442159  0.23085767  0.90403734     0.18110
H1173       H  0.54590963  0.26869424  0.84675778     0.18120
F1174       F  0.55117494  0.27111346  0.90639432    -0.19640
C1175       C  0.51843209  0.22901132  0.64123980    -0.21080
C1176       C  0.00004254  0.25014119  0.65739795    -0.09120
C1177       C  0.98165689  0.27109010  0.64093209     0.29740
C1178       C  0.98204535  0.27107070  0.60871295    -0.21080
C1179       C  0.99997747  0.24954160  0.59251346    -0.09130
C1180       C  0.51806088  0.22832374  0.60902184     0.29750
F1181       F  0.53594874  0.20748527  0.59401313    -0.19650
H1182       H  0.53269869  0.21268507  0.65362746     0.18110
H1183       H  0.96796201  0.28759103  0.59637261     0.18120
F1184       F  0.96396785  0.29205839  0.65600347    -0.19640
C1185       C  0.64143479  0.48501770  0.72658069    -0.21080
C1186       C  0.65751496  0.00002814  0.75021013    -0.09120
C1187       C  0.64105549  0.01488702  0.77377426     0.29740
C1188       C  0.60882328  0.01441117  0.77378930    -0.21080
C1189       C  0.59259706  0.99987599  0.74984358    -0.09130
C1190       C  0.60921094  0.48530297  0.72606194     0.29750
F1191       F  0.59435206  0.47078922  0.70268291    -0.19650
H1192       H  0.65389321  0.47348407  0.70825434     0.18110
H1193       H  0.59651942  0.02578980  0.79230614     0.18120
F1194       F  0.65617749  0.02914685  0.79714483    -0.19640
C1195       C  0.85847553  0.48317443  0.77213791    -0.21080
C1196       C  0.84236854  0.00000275  0.74975897    -0.09120
C1197       C  0.85883904  0.01670052  0.72746230     0.29740
C1198       C  0.89105993  0.01620528  0.72741840    -0.21080
C1199       C  0.90725387  0.99983889  0.75014834    -0.09130
C1200       C  0.89069274  0.48344722  0.77269974     0.29750
F1201       F  0.90562134  0.46714250  0.79482672    -0.19650
H1202       H  0.84604518  0.47022227  0.78950098     0.18110
H1203       H  0.90339495  0.02900623  0.70988131     0.18120
F1204       F  0.84375484  0.03279851  0.70528841    -0.19640
C1205       C  0.97316741  0.35920738  0.75676584    -0.21080
C1206       C  0.50034746  0.34290314  0.74982251    -0.09120
C1207       C  0.52736131  0.35961364  0.74288241     0.29740
C1208       C  0.52693245  0.39181764  0.74274844    -0.21080
C1209       C  0.49985376  0.40780574  0.74991984    -0.09130
C1210       C  0.97294781  0.39142280  0.75700913     0.29750
F1211       F  0.94643387  0.40661535  0.76379422    -0.19650
H1212       H  0.95207074  0.34702136  0.76221447     0.18110
H1213       H  0.54783400  0.40434408  0.73725153     0.18120
F1214       F  0.55413331  0.34497068  0.73594774    -0.19640
C1215       C  0.52770697  0.10823549  0.74981229    -0.21080
C1216       C  0.99972275  0.09226238  0.75004629    -0.09120
C1217       C  0.97188981  0.10864335  0.75018573     0.29740
C1218       C  0.97212309  0.14086853  0.75006900    -0.21080
C1219       C  0.50015549  0.15718034  0.74990405    -0.09130
C1220       C  0.52806191  0.14043586  0.74979106     0.29750
F1221       F  0.55572721  0.15502216  0.74954580    -0.19650
H1222       H  0.54932037  0.09570235  0.74967837     0.18110
H1223       H  0.95032600  0.15304350  0.75017596     0.18120
F1224       F  0.94455273  0.09343399  0.75034863    -0.19640
O1225       O  0.50076382  0.95629600  0.27502192    -0.71550
O1226       O  0.99878467  0.54375136  0.27508325    -0.71770
O1227       O  0.95615272  0.99882443  0.27509292    -0.71630
O1228       O  0.54365506  0.50117396  0.27493608    -0.71630
O1229       O  0.54360426  0.99891804  0.22492782    -0.71590
O1230       O  0.95611178  0.50120886  0.22507600    -0.71610
O1231       O  0.50083912  0.54377742  0.22499313    -0.71550
O1232       O  0.99900426  0.95633608  0.22492262    -0.71740
V1233       V  0.99986807  0.00002199  0.27407252     1.35240
V1234       V  0.99987474  0.50006058  0.22594396     1.35170
C1235       C  0.99984242  0.94152852  0.24995911     0.77690
C1236       C  0.99974754  0.55854823  0.25004412     0.77750
C1237       C  0.94122969  0.49993942  0.25011333     0.77620
C1238       C  0.55855976  0.49997636  0.24989712     0.77580
O1239       O  0.97505850  0.70634153  0.24834807    -0.71550
O1240       O  0.97520669  0.79389570  0.25148383    -0.71770
O1241       O  0.97509184  0.75192648  0.20618012    -0.71630
O1242       O  0.97499667  0.74850748  0.29356603    -0.71630
O1243       O  0.52492089  0.75161628  0.29367204    -0.71590
O1244       O  0.52505118  0.74822928  0.20614780    -0.71610
O1245       O  0.52511716  0.79366891  0.24831393    -0.71550
O1246       O  0.52496005  0.70634414  0.25142668    -0.71740
V1247       V  0.97602265  0.75014391  0.24988617     1.35240
V1248       V  0.52406770  0.74998738  0.24989756     1.35170
C1249       C  0.50004873  0.69134548  0.24988175     0.77690
C1250       C  0.50023428  0.80876649  0.24986353     0.77750
C1251       C  0.00007013  0.75013032  0.19129180     0.77620
C1252       C  0.99990072  0.75001360  0.30858736     0.77580
O1253       O  0.74806806  0.97541087  0.29386930    -0.71550
O1254       O  0.75177497  0.97483962  0.20643486    -0.71770
O1255       O  0.79365033  0.97509948  0.25221134    -0.71630
O1256       O  0.70621515  0.97508493  0.24808124    -0.71630
O1257       O  0.70620644  0.52501805  0.25208614    -0.71590
O1258       O  0.79363326  0.52496807  0.24755996    -0.71610
O1259       O  0.74799329  0.52469587  0.20610881    -0.71550
O1260       O  0.75190449  0.52524940  0.29351420    -0.71740
V1261       V  0.74993073  0.97603047  0.25014158     1.35240
V1262       V  0.74992827  0.52406000  0.24982467     1.35170
C1263       C  0.74998419  0.50044627  0.30868863     0.77690
C1264       C  0.74987455  0.49966070  0.19128272     0.77750
C1265       C  0.80850368  0.00002662  0.24981658     0.77620
C1266       C  0.69135917  0.00004961  0.25015115     0.77580
O1267       O  0.72494838  0.95643733  0.99936024    -0.71550
O1268       O  0.72482754  0.54382249  0.50101946    -0.71770
O1269       O  0.72473588  0.00085963  0.45635824    -0.71630
O1270       O  0.72500023  0.49928362  0.04382706    -0.71630
O1271       O  0.77509954  0.00111964  0.04361455    -0.71590
O1272       O  0.77484703  0.49925529  0.45616012    -0.71610
O1273       O  0.77484272  0.54392590  0.99887025    -0.71550
O1274       O  0.77493649  0.95636188  0.50071911    -0.71740
V1275       V  0.72585209  0.00011294  0.00011041     1.35240
V1276       V  0.77397533  0.50015756  0.49986673     1.35170
C1277       C  0.74990585  0.94141249  0.00006069     0.77690
C1278       C  0.74978807  0.55880370  0.50001785     0.77750
C1279       C  0.74975360  0.50001889  0.44147586     0.77620
C1280       C  0.75009301  0.50021987  0.05850813     0.77580
O1281       O  0.49860876  0.72502374  0.45607344    -0.71550
O1282       O  0.00097055  0.72463657  0.04355026    -0.71770
O1283       O  0.95606174  0.72502049  0.50063844    -0.71630
O1284       O  0.54350407  0.72462008  0.99876745    -0.71630
O1285       O  0.54378921  0.77454973  0.50117992    -0.71590
O1286       O  0.95629234  0.77512217  0.99912597    -0.71610
O1287       O  0.49871423  0.77465644  0.04379866    -0.71550
O1288       O  0.00141036  0.77505515  0.45632290    -0.71740
V1289       V  0.99978886  0.72578881  0.49978958     1.35240
V1290       V  0.00003940  0.77389122  0.00007841     1.35170
C1291       C  0.00007355  0.75009811  0.44138479     0.77690
C1292       C  0.99989145  0.74958623  0.05856510     0.77750
C1293       C  0.94138157  0.75014098  0.99986168     0.77620
C1294       C  0.55863558  0.74947988  0.99996265     0.77580
O1295       O  0.75045924  0.79388102  0.02500526    -0.71550
O1296       O  0.74880093  0.70640390  0.02514283    -0.71770
O1297       O  0.79349999  0.74952726  0.02540512    -0.71630
O1298       O  0.70601885  0.75092250  0.02472994    -0.71630
O1299       O  0.70648566  0.74940768  0.47461927    -0.71590
O1300       O  0.79398425  0.75047564  0.47538111    -0.71610
O1301       O  0.75109770  0.70628255  0.47507682    -0.71550
O1302       O  0.74976124  0.79375858  0.47487847    -0.71740
V1303       V  0.74973593  0.75015971  0.02409964     1.35240
V1304       V  0.75027307  0.75000288  0.47595753     1.35170
C1305       C  0.75021171  0.80860671  0.99991368     0.77690
C1306       C  0.74998792  0.69152173  0.00013697     0.77750
C1307       C  0.80868989  0.75004155  0.00051866     0.77620
C1308       C  0.69146104  0.75016522  0.99956464     0.77580
C1309       C  0.85900677  0.74133385  0.47397115    -0.21080
C1310       C  0.84276801  0.75009744  0.00063818    -0.09120
C1311       C  0.85945241  0.75899860  0.02702970     0.29740
C1312       C  0.89167198  0.75933735  0.02647225    -0.21080
C1313       C  0.90764237  0.75026421  0.99993538    -0.09130
C1314       C  0.89121473  0.74112372  0.47369044     0.29750
F1315       F  0.90634578  0.73242466  0.44771333    -0.19650
H1316       H  0.84675331  0.73432412  0.45338448     0.18110
H1317       H  0.90422060  0.76639214  0.04687657     0.18120
F1318       F  0.84472491  0.76785259  0.05318091    -0.19640
C1319       C  0.60902419  0.77741019  0.00064624    -0.21080
C1320       C  0.59279432  0.74935530  0.99986184    -0.09120
C1321       C  0.60961175  0.72152770  0.49891991     0.29740
C1322       C  0.64183590  0.72199731  0.49864456    -0.21080
C1323       C  0.65772600  0.75002911  0.99939799    -0.09130
C1324       C  0.64123039  0.77775736  0.00047372     0.29750
F1325       F  0.65628916  0.80512895  0.00130851    -0.19650
H1326       H  0.59680079  0.79916435  0.00139930     0.18110
H1327       H  0.65444830  0.70044513  0.49797782     0.18120
F1328       F  0.59507332  0.69385179  0.49834882    -0.19760
C1329       C  0.77783270  0.89092056  0.49865070    -0.21080
C1330       C  0.74982651  0.90725603  0.00006320    -0.09120
C1331       C  0.72197033  0.89053960  0.00143591     0.29740
C1332       C  0.72234548  0.85835298  0.00139502    -0.21080
C1333       C  0.75027429  0.84233291  0.99988184    -0.09130
C1334       C  0.77807333  0.85869095  0.49851645     0.29750
F1335       F  0.80538177  0.84346425  0.49713502    -0.19650
H1336       H  0.79960500  0.90308299  0.49756740     0.18110
H1337       H  0.70077165  0.84588058  0.00253917     0.18120
F1338       F  0.69433597  0.90513714  0.00295989    -0.19640
C1339       C  0.77423308  0.60911235  0.48664887    -0.21080
C1340       C  0.74970273  0.59283887  0.50015921    -0.09120
C1341       C  0.72531310  0.60941442  0.01376890     0.29740
C1342       C  0.72579658  0.64162582  0.01411901    -0.21080
C1343       C  0.75005851  0.65772033  0.50017477    -0.09130
C1344       C  0.77423458  0.64133051  0.48626730     0.29750
F1345       F  0.79815428  0.65651531  0.47298756    -0.19650
H1346       H  0.79322157  0.59686487  0.47600559     0.18110
H1347       H  0.70698239  0.65406388  0.02486948     0.18120
F1348       F  0.70132665  0.59453989  0.02726404    -0.19640
C1349       C  0.75031104  0.52806232  0.39181602    -0.21080
C1350       C  0.74971204  0.50006252  0.40776365    -0.09120
C1351       C  0.74929176  0.97226976  0.39135790     0.29740
C1352       C  0.74936823  0.97255810  0.35914195    -0.21080
C1353       C  0.74995353  0.50060052  0.34284867    -0.09130
C1354       C  0.75045396  0.52846515  0.35960453     0.29750
F1355       F  0.75098058  0.55611977  0.34501807    -0.19650
H1356       H  0.75069310  0.54964583  0.40437794     0.18110
H1357       H  0.74902545  0.95077626  0.34695806     0.18120
F1358       F  0.74882348  0.94491603  0.40652808    -0.19640
C1359       C  0.75260918  0.52747586  0.14088176    -0.21080
C1360       C  0.74992996  0.49953976  0.15713789    -0.09120
C1361       C  0.74732530  0.97181311  0.14037069     0.29740
C1362       C  0.74730522  0.97225230  0.10815681    -0.21080
C1363       C  0.75015887  0.50013176  0.09222850    -0.09130
C1364       C  0.75284930  0.52777968  0.10866533     0.29750
F1365       F  0.75544325  0.55502990  0.09352385    -0.19650
H1366       H  0.75467964  0.54914002  0.15310430     0.18110
H1367       H  0.74515466  0.95078405  0.09557829     0.18120
F1368       F  0.74449703  0.94430089  0.15496356    -0.19640
C1369       C  0.97436415  0.73924314  0.39156072    -0.21080
C1370       C  0.00010977  0.75018119  0.40760761    -0.09120
C1371       C  0.52580605  0.76091443  0.39120881     0.29740
C1372       C  0.52574088  0.76049038  0.35898106    -0.21080
C1373       C  0.99978253  0.74996607  0.34269014    -0.09130
C1374       C  0.97393615  0.73945750  0.35935322     0.29750
F1375       F  0.94843295  0.72894400  0.34462326    -0.19650
H1376       H  0.95442160  0.73085771  0.40403734     0.18110
H1377       H  0.54590966  0.76869426  0.34675778     0.18120
F1378       F  0.55117497  0.77111347  0.40639432    -0.19640
C1379       C  0.51843216  0.72901128  0.14123979    -0.21080
C1380       C  0.00004256  0.75014117  0.15739795    -0.09120
C1381       C  0.98165691  0.77109007  0.14093208     0.29740
C1382       C  0.98204538  0.77107068  0.10871295    -0.21080
C1383       C  0.99997750  0.74954157  0.09251346    -0.09130
C1384       C  0.51806094  0.72832370  0.10902184     0.29750
F1385       F  0.53594880  0.70748523  0.09401312    -0.19650
H1386       H  0.53269876  0.71268504  0.15362745     0.18110
H1387       H  0.96796204  0.78759101  0.09637260     0.18120
F1388       F  0.96396787  0.79205837  0.15600346    -0.19640
C1389       C  0.64143477  0.98501773  0.22658071    -0.21080
C1390       C  0.65751495  0.50002813  0.25021012    -0.09120
C1391       C  0.64105547  0.51488703  0.27377424     0.29740
C1392       C  0.60882327  0.51441117  0.27378929    -0.21080
C1393       C  0.59259705  0.49987596  0.24984358    -0.09130
C1394       C  0.60921091  0.98530300  0.22606197     0.29750
F1395       F  0.59435204  0.97078924  0.20268295    -0.19650
H1396       H  0.65389318  0.97348410  0.20825437     0.18110
H1397       H  0.59651940  0.52578980  0.29230613     0.18120
F1398       F  0.65617748  0.52914688  0.29714480    -0.19640
C1399       C  0.85847550  0.98317440  0.27213789    -0.21080
C1400       C  0.84236853  0.50000269  0.24975901    -0.09120
C1401       C  0.85883902  0.51670049  0.22746235     0.29740
C1402       C  0.89105992  0.51620526  0.22741846    -0.21080
C1403       C  0.90725386  0.49983885  0.25014839    -0.09130
C1404       C  0.89069271  0.98344718  0.27269973     0.29750
F1405       F  0.90562131  0.96714245  0.29482669    -0.19650
H1406       H  0.84604515  0.97022222  0.28950095     0.18110
H1407       H  0.90339494  0.52900622  0.20988138     0.18120
F1408       F  0.84375482  0.53279848  0.20528847    -0.19640
C1409       C  0.97316744  0.85920739  0.25676585    -0.21080
C1410       C  0.50034750  0.84290314  0.24982247    -0.09120
C1411       C  0.52736133  0.85961364  0.24288235     0.29740
C1412       C  0.52693246  0.89181764  0.24274838    -0.21080
C1413       C  0.49985377  0.90780574  0.24991981    -0.09130
C1414       C  0.97294785  0.89142280  0.25700914     0.29750
F1415       F  0.94643391  0.90661535  0.26379427    -0.19650
H1416       H  0.95207079  0.84702136  0.26221451     0.18110
H1417       H  0.54783400  0.90434409  0.23725144     0.18120
F1418       F  0.55413332  0.84497069  0.23594766    -0.19640
C1419       C  0.52770700  0.60823547  0.24981239    -0.21080
C1420       C  0.99972272  0.59226238  0.25004636    -0.09120
C1421       C  0.97188978  0.60864336  0.25018577     0.29740
C1422       C  0.97212307  0.64086854  0.25006903    -0.21080
C1423       C  0.50015554  0.65718033  0.24990411    -0.09130
C1424       C  0.52806195  0.64043584  0.24979114     0.29750
F1425       F  0.55572726  0.65502213  0.24954591    -0.19650
H1426       H  0.54932041  0.59570232  0.24967848     0.18110
H1427       H  0.95032598  0.65304352  0.25017597     0.18120
F1428       F  0.94455270  0.59343400  0.25034865    -0.19640
O1429       O  0.50076385  0.95629603  0.77502189    -0.71550
O1430       O  0.99878467  0.54375136  0.77508322    -0.71770
O1431       O  0.95615275  0.99882446  0.77509287    -0.71630
O1432       O  0.54365506  0.50117400  0.77493607    -0.71630
O1433       O  0.54360430  0.99891801  0.72492778    -0.71590
O1434       O  0.95611178  0.50120885  0.72507599    -0.71610
O1435       O  0.50083908  0.54377741  0.72499311    -0.71550
O1436       O  0.99900425  0.95633607  0.72492261    -0.71740
V1437       V  0.99986810  0.00002201  0.77407248     1.35240
V1438       V  0.99987475  0.50006056  0.72594396     1.35170
C1439       C  0.99984242  0.94152852  0.74995910     0.77690
C1440       C  0.99974754  0.55854822  0.75004408     0.77750
C1441       C  0.94122969  0.49993941  0.75011332     0.77620
C1442       C  0.55855975  0.49997639  0.74989712     0.77580
O1443       O  0.97505845  0.70634152  0.74834806    -0.71550
O1444       O  0.97520666  0.79389569  0.75148384    -0.71770
O1445       O  0.97509181  0.75192647  0.70618011    -0.71630
O1446       O  0.97499663  0.74850746  0.79356603    -0.71630
O1447       O  0.52492081  0.75161624  0.79367204    -0.71590
O1448       O  0.52505110  0.74822929  0.70614779    -0.71610
O1449       O  0.52511711  0.79366890  0.74831395    -0.71550
O1450       O  0.52495995  0.70634413  0.75142665    -0.71740
V1451       V  0.97602261  0.75014390  0.74988616     1.35240
V1452       V  0.52406762  0.74998737  0.74989756     1.35170
C1453       C  0.50004862  0.69134548  0.74988171     0.77690
C1454       C  0.50023424  0.80876650  0.74986356     0.77750
C1455       C  0.00007009  0.75013032  0.69129180     0.77620
C1456       C  0.99990068  0.75001356  0.80858736     0.77580
O1457       O  0.74806812  0.97541084  0.79386928    -0.71550
O1458       O  0.75177500  0.97483960  0.70643485    -0.71770
O1459       O  0.79365038  0.97509948  0.75221130    -0.71630
O1460       O  0.70621519  0.97508488  0.74808123    -0.71630
O1461       O  0.70620644  0.52501808  0.75208614    -0.71590
O1462       O  0.79363326  0.52496811  0.74755997    -0.71610
O1463       O  0.74799330  0.52469591  0.70610881    -0.71550
O1464       O  0.75190449  0.52524945  0.79351420    -0.71740
V1465       V  0.74993077  0.97603045  0.75014157     1.35240
V1466       V  0.74992827  0.52406005  0.74982467     1.35170
C1467       C  0.74998419  0.50044632  0.80868863     0.77690
C1468       C  0.74987457  0.49966074  0.69128273     0.77750
C1469       C  0.80850371  0.00002664  0.74981655     0.77620
C1470       C  0.69135921  0.00004956  0.75015115     0.77580
O1471       O  0.72494837  0.95643733  0.49936021    -0.71550
O1472       O  0.72482757  0.54382251  0.00101949    -0.71770
O1473       O  0.72473585  0.00085959  0.95635824    -0.71630
O1474       O  0.72500022  0.49928365  0.54382707    -0.71630
O1475       O  0.77509955  0.00111960  0.54361456    -0.71590
O1476       O  0.77484705  0.49925531  0.95616012    -0.71610
O1477       O  0.77484269  0.54392589  0.49887024    -0.71550
O1478       O  0.77493650  0.95636190  0.00071912    -0.71740
V1479       V  0.72585210  0.00011295  0.50011040     1.35240
V1480       V  0.77397535  0.50015757  0.99986673     1.35170
C1481       C  0.74990583  0.94141248  0.50006066     0.77690
C1482       C  0.74978810  0.55880371  0.00001787     0.77750
C1483       C  0.74975363  0.50001894  0.94147586     0.77620
C1484       C  0.75009300  0.50021989  0.55850813     0.77580
O1485       O  0.49860872  0.72502372  0.95607345    -0.71550
O1486       O  0.00097054  0.72463656  0.54355025    -0.71770
O1487       O  0.95606173  0.72502049  0.00063848    -0.71630
O1488       O  0.54350408  0.72462009  0.49876747    -0.71630
O1489       O  0.54378920  0.77454972  0.00117990    -0.71590
O1490       O  0.95629235  0.77512216  0.49912596    -0.71610
O1491       O  0.49871422  0.77465646  0.54379866    -0.71550
O1492       O  0.00141034  0.77505514  0.95632290    -0.71740
V1493       V  0.99978885  0.72578881  0.99978959     1.35240
V1494       V  0.00003941  0.77389122  0.50007841     1.35170
C1495       C  0.00007352  0.75009809  0.94138480     0.77690
C1496       C  0.99989144  0.74958622  0.55856509     0.77750
C1497       C  0.94138158  0.75014097  0.49986165     0.77620
C1498       C  0.55863559  0.74947988  0.49996268     0.77580
O1499       O  0.75045924  0.79388101  0.52500525    -0.71550
O1500       O  0.74880094  0.70640390  0.52514283    -0.71770
O1501       O  0.79350000  0.74952726  0.52540510    -0.71630
O1502       O  0.70601886  0.75092249  0.52472995    -0.71630
O1503       O  0.70648567  0.74940771  0.97461926    -0.71590
O1504       O  0.79398426  0.75047564  0.97538113    -0.71610
O1505       O  0.75109769  0.70628257  0.97507682    -0.71550
O1506       O  0.74976127  0.79375860  0.97487847    -0.71740
V1507       V  0.74973594  0.75015970  0.52409963     1.35240
V1508       V  0.75027308  0.75000289  0.97595754     1.35170
C1509       C  0.75021168  0.80860670  0.49991367     0.77690
C1510       C  0.74998792  0.69152171  0.50013697     0.77750
C1511       C  0.80868989  0.75004155  0.50051864     0.77620
C1512       C  0.69146104  0.75016520  0.49956466     0.77580
C1513       C  0.85900677  0.74133387  0.97397117    -0.21080
C1514       C  0.84276801  0.75009743  0.50063815    -0.09120
C1515       C  0.85945242  0.75899860  0.52702967     0.29740
C1516       C  0.89167199  0.75933736  0.52647221    -0.21080
C1517       C  0.90764238  0.75026420  0.49993534    -0.09130
C1518       C  0.89121473  0.74112374  0.97369047     0.29750
F1519       F  0.90634578  0.73242470  0.94771335    -0.19650
H1520       H  0.84675332  0.73432415  0.95338450     0.18110
H1521       H  0.90422061  0.76639215  0.54687654     0.18120
F1522       F  0.84472492  0.76785260  0.55318088    -0.19640
C1523       C  0.60902420  0.77741017  0.50064629    -0.21080
C1524       C  0.59279433  0.74935529  0.49986187    -0.09120
C1525       C  0.60961175  0.72152771  0.99891991     0.29740
C1526       C  0.64183590  0.72199733  0.99864456    -0.21080
C1527       C  0.65772600  0.75002908  0.49939801    -0.09130
C1528       C  0.64123040  0.77775734  0.50047377     0.29750
F1529       F  0.65628917  0.80512892  0.50130858    -0.19650
H1530       H  0.59680081  0.79916434  0.50139937     0.18110
H1531       H  0.65444830  0.70044515  0.99797785     0.18120
F1532       F  0.59507333  0.69385180  0.99834884    -0.19760
C1533       C  0.77783273  0.89092057  0.99865070    -0.21080
C1534       C  0.74982648  0.90725603  0.50006318    -0.09120
C1535       C  0.72197030  0.89053960  0.50143587     0.29740
C1536       C  0.72234544  0.85835297  0.50139498    -0.21080
C1537       C  0.75027426  0.84233290  0.49988183    -0.09130
C1538       C  0.77807337  0.85869096  0.99851644     0.29750
F1539       F  0.80538180  0.84346426  0.99713498    -0.19650
H1540       H  0.79960503  0.90308300  0.99756738     0.18110
H1541       H  0.70077162  0.84588058  0.50253912     0.18120
F1542       F  0.69433594  0.90513714  0.50295983    -0.19640
C1543       C  0.77423310  0.60911237  0.98664890    -0.21080
C1544       C  0.74970275  0.59283889  0.00015923    -0.09120
C1545       C  0.72531309  0.60941442  0.51376890     0.29740
C1546       C  0.72579658  0.64162581  0.51411902    -0.21080
C1547       C  0.75005851  0.65772034  0.00017477    -0.09130
C1548       C  0.77423460  0.64133053  0.98626731     0.29750
F1549       F  0.79815430  0.65651533  0.97298758    -0.19650
H1550       H  0.79322161  0.59686488  0.97600562     0.18110
H1551       H  0.70698240  0.65406387  0.52486950     0.18120
F1552       F  0.70132663  0.59453988  0.52726404    -0.19640
C1553       C  0.75031102  0.52806238  0.89181602    -0.21080
C1554       C  0.74971207  0.50006258  0.90776365    -0.09120
C1555       C  0.74929175  0.97226972  0.89135789     0.29740
C1556       C  0.74936825  0.97255806  0.85914195    -0.21080
C1557       C  0.74995354  0.50060057  0.84284867    -0.09130
C1558       C  0.75045392  0.52846521  0.85960453     0.29750
F1559       F  0.75098049  0.55611983  0.84501807    -0.19650
H1560       H  0.75069304  0.54964589  0.90437794     0.18110
H1561       H  0.74902550  0.95077622  0.84695805     0.18120
F1562       F  0.74882349  0.94491599  0.90652808    -0.19640
C1563       C  0.75260920  0.52747590  0.64088176    -0.21080
C1564       C  0.74992997  0.49953980  0.65713790    -0.09120
C1565       C  0.74732528  0.97181309  0.64037068     0.29740
C1566       C  0.74730520  0.97225228  0.60815681    -0.21080
C1567       C  0.75015887  0.50013178  0.59222851    -0.09130
C1568       C  0.75284931  0.52777971  0.60866533     0.29750
F1569       F  0.75544325  0.55502993  0.59352385    -0.19650
H1570       H  0.75467966  0.54914006  0.65310430     0.18110
H1571       H  0.74515464  0.95078402  0.59557828     0.18120
F1572       F  0.74449700  0.94430087  0.65496356    -0.19640
C1573       C  0.97436412  0.73924309  0.89156072    -0.21080
C1574       C  0.00010973  0.75018116  0.90760761    -0.09120
C1575       C  0.52580598  0.76091441  0.89120880     0.29740
C1576       C  0.52574081  0.76049035  0.85898106    -0.21080
C1577       C  0.99978249  0.74996603  0.84269014    -0.09130
C1578       C  0.97393612  0.73945744  0.85935322     0.29750
F1579       F  0.94843293  0.72894391  0.84462326    -0.19650
H1580       H  0.95442158  0.73085764  0.90403734     0.18110
H1581       H  0.54590958  0.76869425  0.84675777     0.18120
F1582       F  0.55117490  0.77111347  0.90639430    -0.19640
C1583       C  0.51843209  0.72901130  0.64123980    -0.21080
C1584       C  0.00004253  0.75014117  0.65739795    -0.09120
C1585       C  0.98165688  0.77109006  0.64093207     0.29740
C1586       C  0.98204534  0.77107066  0.60871294    -0.21080
C1587       C  0.99997747  0.74954156  0.59251345    -0.09130
C1588       C  0.51806089  0.72832372  0.60902184     0.29750
F1589       F  0.53594876  0.70748525  0.59401314    -0.19650
H1590       H  0.53269870  0.71268506  0.65362746     0.18110
H1591       H  0.96796200  0.78759098  0.59637259     0.18120
F1592       F  0.96396783  0.79205835  0.65600345    -0.19640
C1593       C  0.64143481  0.98501767  0.72658070    -0.21080
C1594       C  0.65751495  0.50002816  0.75021013    -0.09120
C1595       C  0.64105548  0.51488703  0.77377427     0.29740
C1596       C  0.60882327  0.51441117  0.77378931    -0.21080
C1597       C  0.59259705  0.49987600  0.74984358    -0.09130
C1598       C  0.60921095  0.98530294  0.72606195     0.29750
F1599       F  0.59435208  0.97078919  0.70268292    -0.19650
H1600       H  0.65389322  0.97348403  0.70825436     0.18110
H1601       H  0.59651941  0.52578978  0.79230616     0.18120
F1602       F  0.65617748  0.52914683  0.79714485    -0.19640
C1603       C  0.85847554  0.98317443  0.77213785    -0.21080
C1604       C  0.84236853  0.50000273  0.74975902    -0.09120
C1605       C  0.85883903  0.51670048  0.72746233     0.29740
C1606       C  0.89105992  0.51620523  0.72741843    -0.21080
C1607       C  0.90725386  0.49983885  0.75014839    -0.09130
C1608       C  0.89069275  0.98344723  0.77269968     0.29750
F1609       F  0.90562135  0.96714250  0.79482664    -0.19650
H1610       H  0.84604520  0.97022226  0.78950090     0.18110
H1611       H  0.90339494  0.52900616  0.70988133     0.18120
F1612       F  0.84375483  0.53279844  0.70528843    -0.19640
C1613       C  0.97316741  0.85920739  0.75676583    -0.21080
C1614       C  0.50034748  0.84290314  0.74982250    -0.09120
C1615       C  0.52736133  0.85961364  0.74288239     0.29740
C1616       C  0.52693246  0.89181764  0.74274841    -0.21080
C1617       C  0.49985378  0.90780575  0.74991981    -0.09130
C1618       C  0.97294782  0.89142281  0.75700911     0.29750
F1619       F  0.94643388  0.90661537  0.76379421    -0.19650
H1620       H  0.95207074  0.84702137  0.76221448     0.18110
H1621       H  0.54783402  0.90434408  0.73725149     0.18120
F1622       F  0.55413332  0.84497067  0.73594773    -0.19640
C1623       C  0.52770690  0.60823548  0.74981232    -0.21080
C1624       C  0.99972270  0.59226237  0.75004631    -0.09120
C1625       C  0.97188976  0.60864334  0.75018573     0.29740
C1626       C  0.97212304  0.64086852  0.75006900    -0.21080
C1627       C  0.50015542  0.65718033  0.74990406    -0.09130
C1628       C  0.52806184  0.64043585  0.74979107     0.29750
F1629       F  0.55572715  0.65502215  0.74954582    -0.19650
H1630       H  0.54932031  0.59570234  0.74967841     0.18110
H1631       H  0.95032595  0.65304349  0.75017596     0.18120
F1632       F  0.94455269  0.59343398  0.75034863    -0.19640
loop_ 
_geom_bond_atom_site_label_1 
_geom_bond_atom_site_label_2 
_geom_bond_distance 
_geom_bond_site_symmetry_2 
_ccdc_geom_bond_type 
O1          V825   1.899   1_455  S
O1          C827   1.263   1_455  A
O2          V417   1.899       .  S
O2           C12   1.263       .  A
O3            V9   1.898       .  S
O3          C421   1.264       .  A
O4         V1233   1.901   1_455  S
O4           C14   1.265   1_545  A
O5         V1234   1.898   1_455  S
O5          C422   1.264       .  A
O6           V10   1.900       .  S
O6           C13   1.265   1_545  A
O7          V826   1.898   1_455  S
O7          C828   1.263   1_455  A
O8          V418   1.899       .  S
O8           C11   1.263       .  A
V9          O817   1.899       .  S
V9          O410   1.899       .  S
V9         O1228   1.901       .  S
V9          V418   2.089       .  T
V10        O1229   1.898   1_545  S
V10         O823   1.898       .  S
V10         O416   1.899   1_545  S
V10         V417   2.089       .  T
C11         O817   1.263       .  A
C11        C1005   1.464       .  S
C12         O823   1.263       .  A
C12         C196   1.463       .  S
C13         O411   1.264       .  A
C13         C179   1.474       .  S
C14         O413   1.264       .  A
C14         C169   1.477       .  S
O15          V23   1.903       .  S
O15         C841   1.266       .  A
O16          V23   1.900       .  S
O16         C842   1.265       .  A
O17          V23   1.899       .  S
O17          C27   1.264       .  A
O18          V23   1.897       .  S
O18          C28   1.264       .  A
O19          V24   1.901       .  S
O19         C844   1.265   1_455  A
O20          V24   1.900       .  S
O20         C843   1.264       .  A
O21          V24   1.898       .  S
O21          C26   1.264       .  A
O22          V24   1.896       .  S
O22          C25   1.264       .  A
V23         V840   2.085       .  T
V24         V839   2.085   1_455  T
C25         O831   1.266   1_455  A
C25         C199   1.483       .  S
C26         O832   1.265   1_455  A
C26         C186   1.482       .  S
C27         O836   1.264       .  A
C27         C156   1.471       .  S
C28         O835   1.265       .  A
C28         C149   1.480       .  S
O29          V37   1.899       .  S
O29         C447   1.265       .  A
O30          V37   1.899       .  S
O30         C448   1.265       .  A
O31          V37   1.900       .  S
O31          C41   1.264       .  A
O32          V37   1.899       .  S
O32          C42   1.264       .  A
O33          V38   1.900       .  S
O33         C450   1.264       .  A
O34          V38   1.899       .  S
O34         C449   1.264       .  A
O35          V38   1.899       .  S
O35          C40   1.265   1_545  A
O36          V38   1.899       .  S
O36          C39   1.265       .  A
V37         V446   2.085       .  T
V38         V445   2.085   1_545  T
C39         O437   1.265   1_545  A
C39         C129   1.482       .  S
C40         O438   1.265       .  A
C40         C136   1.482       .  S
C41         O442   1.264       .  A
C41         C584   1.469       .  S
C42         O441   1.264       .  A
C42         C574   1.468       .  S
O43          V51   1.896   1_556  S
O43          C53   1.264   1_556  A
O44         V663   1.898       .  S
O44          C54   1.264       .  A
O45         V255   1.900       .  S
O45         C463   1.263       .  A
O46         V459   1.898   1_565  S
O46          C56   1.263   1_565  A
O47         V664   1.900   1_554  S
O47         C464   1.263       .  A
O48          V52   1.897   1_565  S
O48          C55   1.262   1_565  A
O49         V256   1.901       .  S
O49         C258   1.265   1_556  A
O50         V460   1.902       .  S
O50         C257   1.266       .  A
V51         O656   1.898       .  S
V51         O249   1.900   1_554  S
V51         O454   1.898       .  S
V51         V664   2.088   1_554  T
V52         O659   1.900       .  S
V52         O253   1.901       .  S
V52         O458   1.902   1_545  S
V52         V663   2.088       .  T
C53         O254   1.266       .  A
C53         C106   1.482       .  S
C54         O253   1.265       .  A
C54         C116   1.477       .  S
C55         O453   1.263       .  A
C55         C126   1.463       .  S
C56         O455   1.263       .  A
C56         C139   1.463       .  S
O57         V881   1.898       .  S
O57         C883   1.263   1_655  A
O58         V269   1.900   1_554  S
O58          C68   1.264       .  A
O59          V65   1.898       .  S
O59         C273   1.263       .  A
O60        V1085   1.898   1_455  S
O60          C70   1.264       .  A
O61        V1086   1.899       .  S
O61         C274   1.265       .  A
O62          V66   1.899   1_556  S
O62          C69   1.263       .  A
O63         V882   1.898   1_655  S
O63         C884   1.264       .  A
O64         V270   1.900       .  S
O64          C67   1.264       .  A
V65         O873   1.898       .  S
V65         O262   1.900       .  S
V65        O1080   1.898       .  S
V65         V270   2.088       .  T
V66        O1081   1.899       .  S
V66         O879   1.898       .  S
V66         O268   1.900   1_554  S
V66         V269   2.088   1_554  T
C67         O873   1.263       .  A
C67         C146   1.466       .  S
C68         O879   1.264       .  A
C68         C159   1.473       .  S
C69         O263   1.263   1_556  A
C69          C89   1.464       .  S
C70         O265   1.265   1_556  A
C70          C96   1.482       .  S
O71          V79   1.898       .  S
O71          C81   1.263   1_554  A
O72          V79   1.900       .  S
O72          C82   1.264       .  A
O73          V79   1.900       .  S
O73          C83   1.265       .  A
O74          V79   1.897       .  S
O74          C84   1.262   1_554  A
O75          V80   1.901       .  S
O75         C288   1.264       .  A
O76          V80   1.897       .  S
O76         C287   1.264       .  A
O77          V80   1.898       .  S
O77         C286   1.263       .  A
O78          V80   1.900       .  S
O78         C285   1.263       .  A
V79         V284   2.089   1_554  T
V80         V283   2.089       .  T
C81         O282   1.263       .  A
C81         C109   1.464       .  S
C82         O281   1.263   1_554  A
C82         C323   1.467       .  S
C83         O280   1.264   1_554  A
C83          C86   1.479       .  S
C84         O279   1.264       .  A
C84          C99   1.464       .  S
C85          C90   1.398       .  A
C85         C290   1.407       .  A
C85          H92   1.084       .  S
C86          C87   1.409       .  A
C86         C289   1.407   1_554  A
C87          C88   1.398       .  A
C87          F94   1.357       .  S
C88          C89   1.400   1_554  A
C88          H93   1.084       .  S
C89         C294   1.401       .  A
C90         C293   1.401       .  A
C90          F91   1.357       .  S
C95          C96   1.407   1_554  A
C95         C100   1.397       .  A
C95         H102   1.083       .  S
C96         C301   1.411       .  A
C97          C98   1.398       .  A
C97         C300   1.411       .  A
C97         F104   1.357       .  S
C98         C303   1.399       .  A
C98         H103   1.084       .  S
C99         C100   1.401   1_556  A
C99         C302   1.399       .  A
C100        F101   1.357       .  S
C105        C110   1.399       .  A
C105        C310   1.408       .  A
C105        H112   1.083       .  S
C106        C107   1.411       .  A
C106        C309   1.408   1_554  A
C107        C108   1.397       .  A
C107        F114   1.357       .  S
C108        C109   1.398   1_554  A
C108        H113   1.083       .  S
C109        C314   1.401       .  A
C110        C313   1.401       .  A
C110        F111   1.358       .  S
C115        C116   1.405       .  A
C115        C120   1.398       .  A
C115        H122   1.083       .  S
C116        C321   1.409       .  A
C117        C118   1.398       .  A
C117        C320   1.409       .  A
C117        F124   1.357       .  S
C118        C323   1.401       .  A
C118        H123   1.084       .  S
C119        C286   1.467       .  S
C119        C120   1.403       .  A
C119        C322   1.401       .  A
C120        F121   1.358       .  S
C125        C126   1.399       .  A
C125        C130   1.398       .  A
C125        H132   1.084       .  S
C126        C535   1.401   1_545  A
C127        C128   1.398       .  A
C127        C534   1.401       .  A
C127        F134   1.358       .  S
C128        C537   1.408       .  A
C128        H133   1.083       .  S
C129        C130   1.411       .  A
C129        C536   1.408   1_545  A
C130        F131   1.357       .  S
C135        C136   1.408   1_545  A
C135        C140   1.398       .  A
C135        H142   1.083       .  S
C136        C545   1.411       .  A
C137        C138   1.398       .  A
C137        C544   1.411       .  A
C137        F144   1.357       .  S
C138        C547   1.399       .  A
C138        H143   1.084       .  S
C139        C140   1.401       .  A
C139        C546   1.399   1_545  A
C140        F141   1.358       .  S
C145        C146   1.400       .  A
C145        C150   1.398       .  A
C145        H152   1.083       .  S
C146        C963   1.402       .  A
C147        C148   1.399       .  A
C147        C962   1.402       .  A
C147        F154   1.358       .  S
C148        C965   1.407   1_455  A
C148        H153   1.083       .  S
C149        C150   1.410       .  A
C149        C964   1.407       .  A
C150        F151   1.358       .  S
C155        C160   1.399       .  A
C155        C972   1.403       .  A
C155        H162   1.084       .  S
C156        C157   1.405       .  A
C156        C971   1.403       .  A
C157        C158   1.398       .  A
C157        F164   1.358       .  S
C158        C159   1.404       .  A
C158        H163   1.084       .  S
C159        C976   1.406       .  A
C160        C975   1.406   1_455  A
C160        F161   1.357       .  S
C165        C170   1.398       .  A
C165        C574   1.401       .  A
C165        H172   1.084       .  S
C166        C450   1.468       .  S
C166        C167   1.403       .  A
C166        C573   1.401   1_545  A
C167        C168   1.399       .  A
C167        F174   1.358       .  S
C168        C169   1.405   1_545  A
C168        H173   1.083       .  S
C169        C578   1.408       .  A
C170        C577   1.408       .  A
C170        F171   1.358       .  S
C175        C180   1.398       .  A
C175        C584   1.402       .  A
C175        H182   1.084       .  S
C176        C449   1.469       .  S
C176        C177   1.404       .  A
C176        C583   1.402   1_545  A
C177        C178   1.398       .  A
C177        F184   1.358       .  S
C178        C179   1.404   1_545  A
C178        H183   1.084       .  S
C179        C588   1.407       .  A
C180        C587   1.407       .  A
C180        F181   1.358       .  S
C185        C190   1.398       .  A
C185       C1002   1.407       .  A
C185        H192   1.083       .  S
C186        C187   1.411       .  A
C186       C1001   1.407   1_455  A
C187        C188   1.398       .  A
C187        F194   1.357       .  S
C188        C189   1.399   1_455  A
C188        H193   1.084       .  S
C189        C827   1.464       .  S
C189       C1006   1.401       .  A
C190       C1005   1.401       .  A
C190        F191   1.358       .  S
C195        C200   1.398       .  A
C195       C1012   1.399   1_455  A
C195        H202   1.084       .  S
C196        C197   1.401       .  A
C196       C1011   1.399       .  A
C197        C198   1.399       .  A
C197        F204   1.358       .  S
C198       C1015   1.408       .  A
C198        H203   1.083       .  S
C199        C200   1.412       .  A
C199       C1014   1.408   1_455  A
C200        F201   1.357       .  S
O205       V1029   1.899   1_455  S
O205       C1031   1.263   1_455  A
O206        V621   1.899       .  S
O206        C216   1.263       .  A
O207        V213   1.898       .  S
O207        C625   1.264       .  A
O208       V1437   1.901   1_455  S
O208        C218   1.265   1_545  A
O209       V1438   1.898   1_455  S
O209        C626   1.264       .  A
O210        V214   1.900       .  S
O210        C217   1.265   1_545  A
O211       V1030   1.898   1_455  S
O211       C1032   1.263   1_455  A
O212        V622   1.899       .  S
O212        C215   1.263       .  A
V213       O1021   1.899       .  S
V213        O614   1.899       .  S
V213       O1432   1.901       .  S
V213        V622   2.089       .  T
V214       O1433   1.898   1_545  S
V214       O1027   1.898       .  S
V214        O620   1.899   1_545  S
V214        V621   2.089       .  T
C215       O1021   1.263       .  A
C215       C1209   1.464       .  S
C216       O1027   1.263       .  A
C216        C400   1.463       .  S
C217        O615   1.264       .  A
C217        C383   1.474       .  S
C218        O617   1.264       .  A
C218        C373   1.477       .  S
O219        V227   1.903       .  S
O219       C1045   1.266       .  A
O220        V227   1.900       .  S
O220       C1046   1.265       .  A
O221        V227   1.899       .  S
O221        C231   1.264       .  A
O222        V227   1.897       .  S
O222        C232   1.264       .  A
O223        V228   1.901       .  S
O223       C1048   1.265   1_455  A
O224        V228   1.900       .  S
O224       C1047   1.264       .  A
O225        V228   1.898       .  S
O225        C230   1.264       .  A
O226        V228   1.896       .  S
O226        C229   1.264       .  A
V227       V1044   2.085       .  T
V228       V1043   2.085   1_455  T
C229       O1035   1.266   1_455  A
C229        C403   1.483       .  S
C230       O1036   1.265   1_455  A
C230        C390   1.482       .  S
C231       O1040   1.264       .  A
C231        C360   1.471       .  S
C232       O1039   1.265       .  A
C232        C353   1.480       .  S
O233        V241   1.899       .  S
O233        C651   1.265       .  A
O234        V241   1.899       .  S
O234        C652   1.265       .  A
O235        V241   1.900       .  S
O235        C245   1.264       .  A
O236        V241   1.899       .  S
O236        C246   1.264       .  A
O237        V242   1.900       .  S
O237        C654   1.264       .  A
O238        V242   1.899       .  S
O238        C653   1.264       .  A
O239        V242   1.899       .  S
O239        C244   1.265   1_545  A
O240        V242   1.899       .  S
O240        C243   1.265       .  A
V241        V650   2.085       .  T
V242        V649   2.085   1_545  T
C243        O641   1.265   1_545  A
C243        C333   1.482       .  S
C244        O642   1.265       .  A
C244        C340   1.482       .  S
C245        O646   1.264       .  A
C245        C788   1.469       .  S
C246        O645   1.264       .  A
C246        C778   1.468       .  S
O247        V255   1.896       .  S
O247        C257   1.264       .  A
O248        V459   1.898       .  S
O248        C258   1.264       .  A
O249        C667   1.263       .  A
O250        V663   1.898   1_565  S
O250        C260   1.263   1_565  A
O251        V460   1.900       .  S
O251        C668   1.263       .  A
O252        V256   1.897   1_565  S
O252        C259   1.262   1_565  A
O254        V664   1.902   1_554  S
V255        O452   1.898       .  S
V255        O658   1.898       .  S
V255        V460   2.088       .  T
V256        O455   1.900   1_556  S
V256        O662   1.902   1_546  S
V256        V459   2.088   1_556  T
C257        C310   1.482       .  S
C258        C320   1.477       .  S
C259        O657   1.263       .  A
C259        C330   1.463       .  S
C260        O659   1.263       .  A
C260        C343   1.463       .  S
O261       V1085   1.898       .  S
O261       C1087   1.263   1_655  A
O262        C272   1.264       .  A
O263        V269   1.898   1_554  S
O264        V881   1.898   1_455  S
O264        C274   1.264       .  A
O265        V882   1.899       .  S
O266        V270   1.899       .  S
O266        C273   1.263       .  A
O267       V1086   1.898   1_655  S
O267       C1088   1.264       .  A
O268        C271   1.264       .  A
V269       O1077   1.898       .  S
V269        O876   1.898       .  S
V270        O877   1.899       .  S
V270       O1083   1.898       .  S
C271       O1077   1.263       .  A
C271        C350   1.466       .  S
C272       O1083   1.264       .  A
C272        C363   1.473       .  S
C273        C293   1.464       .  S
C274        C300   1.482       .  S
O275        V283   1.898       .  S
O275        C285   1.263       .  A
O276        V283   1.900       .  S
O276        C286   1.264       .  A
O277        V283   1.900       .  S
O277        C287   1.265       .  A
O278        V283   1.897       .  S
O278        C288   1.262       .  A
O279        V284   1.901       .  S
O280        V284   1.897       .  S
O281        V284   1.898       .  S
O282        V284   1.900       .  S
C285        C313   1.464       .  S
C287        C290   1.479       .  S
C288        C303   1.464       .  S
C289        C294   1.398       .  A
C289        H296   1.084       .  S
C290        C291   1.409       .  A
C291        C292   1.398       .  A
C291        F298   1.357       .  S
C292        C293   1.400       .  A
C292        H297   1.084       .  S
C294        F295   1.357       .  S
C299        C300   1.407       .  A
C299        C304   1.397       .  A
C299        H306   1.083       .  S
C301        C302   1.398       .  A
C301        F308   1.357       .  S
C302        H307   1.084       .  S
C303        C304   1.401       .  A
C304        F305   1.357       .  S
C309        C314   1.399       .  A
C309        H316   1.083       .  S
C310        C311   1.411       .  A
C311        C312   1.397       .  A
C311        F318   1.357       .  S
C312        C313   1.398       .  A
C312        H317   1.083       .  S
C314        F315   1.358       .  S
C319        C320   1.405   1_556  A
C319        C324   1.398       .  A
C319        H326   1.083       .  S
C321        C322   1.398       .  A
C321        F328   1.357       .  S
C322        H327   1.084       .  S
C323        C324   1.403   1_554  A
C324        F325   1.358       .  S
C329        C330   1.399       .  A
C329        C334   1.398       .  A
C329        H336   1.084       .  S
C330        C739   1.401   1_545  A
C331        C738   1.401       .  A
C331        C332   1.398       .  A
C331        F338   1.358       .  S
C332        C741   1.408       .  A
C332        H337   1.083       .  S
C333        C740   1.408   1_545  A
C333        C334   1.411       .  A
C334        F335   1.357       .  S
C339        C340   1.408   1_545  A
C339        C344   1.398       .  A
C339        H346   1.083       .  S
C340        C749   1.411       .  A
C341        C748   1.411       .  A
C341        C342   1.398       .  A
C341        F348   1.357       .  S
C342        C751   1.399       .  A
C342        H347   1.084       .  S
C343        C750   1.399   1_545  A
C343        C344   1.401       .  A
C344        F345   1.358       .  S
C349        C350   1.400       .  A
C349        C354   1.398       .  A
C349        H356   1.083       .  S
C350       C1167   1.402       .  A
C351       C1166   1.402       .  A
C351        C352   1.399       .  A
C351        F358   1.358       .  S
C352       C1169   1.407   1_455  A
C352        H357   1.083       .  S
C353       C1168   1.407       .  A
C353        C354   1.410       .  A
C354        F355   1.358       .  S
C359       C1176   1.403       .  A
C359        C364   1.399       .  A
C359        H366   1.084       .  S
C360       C1175   1.403       .  A
C360        C361   1.405       .  A
C361        C362   1.398       .  A
C361        F368   1.358       .  S
C362        C363   1.404       .  A
C362        H367   1.084       .  S
C363       C1180   1.406       .  A
C364       C1179   1.406   1_455  A
C364        F365   1.357       .  S
C369        C778   1.401       .  A
C369        C374   1.398       .  A
C369        H376   1.084       .  S
C370        C654   1.468       .  S
C370        C777   1.401   1_545  A
C370        C371   1.403       .  A
C371        C372   1.399       .  A
C371        F378   1.358       .  S
C372        C373   1.405   1_545  A
C372        H377   1.083       .  S
C373        C782   1.408       .  A
C374        C781   1.408       .  A
C374        F375   1.358       .  S
C379        C788   1.402       .  A
C379        C384   1.398       .  A
C379        H386   1.084       .  S
C380        C653   1.469       .  S
C380        C787   1.402   1_545  A
C380        C381   1.404       .  A
C381        C382   1.398       .  A
C381        F388   1.358       .  S
C382        C383   1.404   1_545  A
C382        H387   1.084       .  S
C383        C792   1.407       .  A
C384        C791   1.407       .  A
C384        F385   1.358       .  S
C389       C1206   1.407       .  A
C389        C394   1.398       .  A
C389        H396   1.083       .  S
C390       C1205   1.407   1_455  A
C390        C391   1.411       .  A
C391        C392   1.398       .  A
C391        F398   1.357       .  S
C392        C393   1.399   1_455  A
C392        H397   1.084       .  S
C393       C1031   1.464       .  S
C393       C1210   1.401       .  A
C394       C1209   1.401       .  A
C394        F395   1.358       .  S
C399       C1216   1.399   1_455  A
C399        C404   1.398       .  A
C399        H406   1.084       .  S
C400       C1215   1.399       .  A
C400        C401   1.401       .  A
C401        C402   1.399       .  A
C401        F408   1.358       .  S
C402       C1219   1.408       .  A
C402        H407   1.083       .  S
C403       C1218   1.408   1_455  A
C403        C404   1.412       .  A
C404        F405   1.357       .  S
O409       V1233   1.899   1_465  S
O409       C1235   1.263   1_455  A
O410        C420   1.263       .  A
O411        V417   1.898   1_565  S
O412        V825   1.901   1_455  S
O412        C422   1.265       .  A
O413        V826   1.898   1_465  S
O414        V418   1.900       .  S
O414        C421   1.265       .  A
O415       V1234   1.898   1_455  S
O415       C1236   1.263   1_455  A
O416        C419   1.263       .  A
V417       O1225   1.899   1_545  S
V417        O820   1.901       .  S
V418        O821   1.898       .  S
V418       O1231   1.898       .  S
C419       O1225   1.263       .  A
C419       C1413   1.464       .  S
C420       O1231   1.263       .  A
C420        C604   1.463       .  S
C421        C587   1.474       .  S
C422        C577   1.477       .  S
O423        V431   1.903       .  S
O423       C1249   1.266       .  A
O424        V431   1.900       .  S
O424       C1250   1.265       .  A
O425        V431   1.899       .  S
O425        C435   1.264       .  A
O426        V431   1.897       .  S
O426        C436   1.264       .  A
O427        V432   1.901       .  S
O427       C1252   1.265   1_455  A
O428        V432   1.900       .  S
O428       C1251   1.264       .  A
O429        V432   1.898       .  S
O429        C434   1.264       .  A
O430        V432   1.896       .  S
O430        C433   1.264       .  A
V431       V1248   2.085       .  T
V432       V1247   2.085   1_455  T
C433       O1239   1.266   1_455  A
C433        C607   1.483       .  S
C434       O1240   1.265   1_455  A
C434        C594   1.482       .  S
C435       O1244   1.264       .  A
C435        C564   1.471       .  S
C436       O1243   1.265       .  A
C436        C557   1.480       .  S
O437        V445   1.899       .  S
O438        V445   1.899       .  S
O439        V445   1.900       .  S
O439        C449   1.264   1_565  A
O440        V445   1.899       .  S
O440        C450   1.264   1_565  A
O441        V446   1.900       .  S
O442        V446   1.899       .  S
O443        V446   1.899       .  S
O443        C448   1.265       .  A
O444        V446   1.899       .  S
O444        C447   1.265       .  A
C447        C537   1.482       .  S
C448        C544   1.482       .  S
O451        V459   1.896   1_566  S
O451        C461   1.264   1_556  A
O452        C462   1.264       .  A
O453        V663   1.900       .  S
O454        C464   1.263       .  A
O456        V460   1.897       .  S
O456        C463   1.262       .  A
O457        V664   1.901       .  S
O457        C666   1.265   1_556  A
O458        C665   1.266       .  A
V459        O657   1.900   1_554  S
V460        O661   1.901       .  S
C461        O662   1.266       .  A
C461        C514   1.482       .  S
C462        O661   1.265       .  A
C462        C524   1.477       .  S
C463        C534   1.463       .  S
C464        C547   1.463       .  S
O465       V1289   1.898       .  S
O465       C1291   1.263   1_655  A
O466        V677   1.900   1_554  S
O466        C476   1.264       .  A
O467        V473   1.898       .  S
O467        C681   1.263       .  A
O468       V1493   1.898   1_455  S
O468        C478   1.264       .  A
O469       V1494   1.899       .  S
O469        C682   1.265       .  A
O470        V474   1.899   1_556  S
O470        C477   1.263       .  A
O471       V1290   1.898   1_655  S
O471       C1292   1.264       .  A
O472        V678   1.900       .  S
O472        C475   1.264       .  A
V473       O1281   1.898       .  S
V473        O670   1.900       .  S
V473       O1488   1.898       .  S
V473        V678   2.088       .  T
V474       O1489   1.899       .  S
V474       O1287   1.898       .  S
V474        O676   1.900   1_554  S
V474        V677   2.088   1_554  T
C475       O1281   1.263       .  A
C475        C554   1.466       .  S
C476       O1287   1.264       .  A
C476        C567   1.473       .  S
C477        O671   1.263   1_556  A
C477        C497   1.464       .  S
C478        O673   1.265   1_556  A
C478        C504   1.482       .  S
O479        V487   1.898       .  S
O479        C489   1.263   1_554  A
O480        V487   1.900       .  S
O480        C490   1.264       .  A
O481        V487   1.900       .  S
O481        C491   1.265       .  A
O482        V487   1.897       .  S
O482        C492   1.262   1_554  A
O483        V488   1.901       .  S
O483        C696   1.264       .  A
O484        V488   1.897       .  S
O484        C695   1.264       .  A
O485        V488   1.898       .  S
O485        C694   1.263       .  A
O486        V488   1.900       .  S
O486        C693   1.263       .  A
V487        V692   2.089   1_554  T
V488        V691   2.089       .  T
C489        O690   1.263       .  A
C489        C517   1.464       .  S
C490        O689   1.263   1_554  A
C490        C731   1.467       .  S
C491        O688   1.264   1_554  A
C491        C494   1.479       .  S
C492        O687   1.264       .  A
C492        C507   1.464       .  S
C493        C698   1.407       .  A
C493        C498   1.398       .  A
C493        H500   1.084       .  S
C494        C697   1.407   1_554  A
C494        C495   1.409       .  A
C495        C496   1.398       .  A
C495        F502   1.357       .  S
C496        C497   1.400   1_554  A
C496        H501   1.084       .  S
C497        C702   1.401       .  A
C498        C701   1.401       .  A
C498        F499   1.357       .  S
C503        C504   1.407   1_554  A
C503        C508   1.397       .  A
C503        H510   1.083       .  S
C504        C709   1.411       .  A
C505        C708   1.411       .  A
C505        C506   1.398       .  A
C505        F512   1.357       .  S
C506        C711   1.399       .  A
C506        H511   1.084       .  S
C507        C710   1.399       .  A
C507        C508   1.401   1_556  A
C508        F509   1.357       .  S
C513        C718   1.408       .  A
C513        C518   1.399       .  A
C513        H520   1.083       .  S
C514        C717   1.408   1_554  A
C514        C515   1.411       .  A
C515        C516   1.397       .  A
C515        F522   1.357       .  S
C516        C517   1.398   1_554  A
C516        H521   1.083       .  S
C517        C722   1.401       .  A
C518        C721   1.401       .  A
C518        F519   1.358       .  S
C523        C524   1.405       .  A
C523        C528   1.398       .  A
C523        H530   1.083       .  S
C524        C729   1.409       .  A
C525        C728   1.409       .  A
C525        C526   1.398       .  A
C525        F532   1.357       .  S
C526        C731   1.401       .  A
C526        H531   1.084       .  S
C527        C694   1.467       .  S
C527        C730   1.401       .  A
C527        C528   1.403       .  A
C528        F529   1.358       .  S
C533        C534   1.399       .  A
C533        C538   1.398       .  A
C533        H540   1.084       .  S
C535        C536   1.398       .  A
C535        F542   1.358       .  S
C536        H541   1.083       .  S
C537        C538   1.411       .  A
C538        F539   1.357       .  S
C543        C544   1.408       .  A
C543        C548   1.398       .  A
C543        H550   1.083       .  S
C545        C546   1.398       .  A
C545        F552   1.357       .  S
C546        H551   1.084       .  S
C547        C548   1.401       .  A
C548        F549   1.358       .  S
C553        C554   1.400       .  A
C553        C558   1.398       .  A
C553        H560   1.083       .  S
C554       C1371   1.402       .  A
C555       C1370   1.402       .  A
C555        C556   1.399       .  A
C555        F562   1.358       .  S
C556       C1373   1.407   1_455  A
C556        H561   1.083       .  S
C557       C1372   1.407       .  A
C557        C558   1.410       .  A
C558        F559   1.358       .  S
C563       C1380   1.403       .  A
C563        C568   1.399       .  A
C563        H570   1.084       .  S
C564       C1379   1.403       .  A
C564        C565   1.405       .  A
C565        C566   1.398       .  A
C565        F572   1.358       .  S
C566        C567   1.404       .  A
C566        H571   1.084       .  S
C567       C1384   1.406       .  A
C568       C1383   1.406   1_455  A
C568        F569   1.357       .  S
C573        C578   1.398       .  A
C573        H580   1.084       .  S
C574        C575   1.403       .  A
C575        C576   1.399       .  A
C575        F582   1.358       .  S
C576        C577   1.405       .  A
C576        H581   1.083       .  S
C578        F579   1.358       .  S
C583        C588   1.398       .  A
C583        H590   1.084       .  S
C584        C585   1.404       .  A
C585        C586   1.398       .  A
C585        F592   1.358       .  S
C586        C587   1.404       .  A
C586        H591   1.084       .  S
C588        F589   1.358       .  S
C593       C1410   1.407       .  A
C593        C598   1.398       .  A
C593        H600   1.083       .  S
C594       C1409   1.407   1_455  A
C594        C595   1.411       .  A
C595        C596   1.398       .  A
C595        F602   1.357       .  S
C596        C597   1.399   1_455  A
C596        H601   1.084       .  S
C597       C1235   1.464       .  S
C597       C1414   1.401       .  A
C598       C1413   1.401       .  A
C598        F599   1.358       .  S
C603       C1420   1.399   1_455  A
C603        C608   1.398       .  A
C603        H610   1.084       .  S
C604       C1419   1.399       .  A
C604        C605   1.401       .  A
C605        C606   1.399       .  A
C605        F612   1.358       .  S
C606       C1423   1.408       .  A
C606        H611   1.083       .  S
C607       C1422   1.408   1_455  A
C607        C608   1.412       .  A
C608        F609   1.357       .  S
O613       V1437   1.899   1_465  S
O613       C1439   1.263   1_455  A
O614        C624   1.263       .  A
O615        V621   1.898   1_565  S
O616       V1029   1.901   1_455  S
O616        C626   1.265       .  A
O617       V1030   1.898   1_465  S
O618        V622   1.900       .  S
O618        C625   1.265       .  A
O619       V1438   1.898   1_455  S
O619       C1440   1.263   1_455  A
O620        C623   1.263       .  A
V621       O1429   1.899   1_545  S
V621       O1024   1.901       .  S
V622       O1025   1.898       .  S
V622       O1435   1.898       .  S
C623       O1429   1.263       .  A
C623       C1617   1.464       .  S
C624       O1435   1.263       .  A
C624        C808   1.463       .  S
C625        C791   1.474       .  S
C626        C781   1.477       .  S
O627        V635   1.903       .  S
O627       C1453   1.266       .  A
O628        V635   1.900       .  S
O628       C1454   1.265       .  A
O629        V635   1.899       .  S
O629        C639   1.264       .  A
O630        V635   1.897       .  S
O630        C640   1.264       .  A
O631        V636   1.901       .  S
O631       C1456   1.265   1_455  A
O632        V636   1.900       .  S
O632       C1455   1.264       .  A
O633        V636   1.898       .  S
O633        C638   1.264       .  A
O634        V636   1.896       .  S
O634        C637   1.264       .  A
V635       V1452   2.085       .  T
V636       V1451   2.085   1_455  T
C637       O1443   1.266   1_455  A
C637        C811   1.483       .  S
C638       O1444   1.265   1_455  A
C638        C798   1.482       .  S
C639       O1448   1.264       .  A
C639        C768   1.471       .  S
C640       O1447   1.265       .  A
C640        C761   1.480       .  S
O641        V649   1.899       .  S
O642        V649   1.899       .  S
O643        V649   1.900       .  S
O643        C653   1.264   1_565  A
O644        V649   1.899       .  S
O644        C654   1.264   1_565  A
O645        V650   1.900       .  S
O646        V650   1.899       .  S
O647        V650   1.899       .  S
O647        C652   1.265       .  A
O648        V650   1.899       .  S
O648        C651   1.265       .  A
C651        C741   1.482       .  S
C652        C748   1.482       .  S
O655        V663   1.896   1_565  S
O655        C665   1.264       .  A
O656        C666   1.264       .  A
O658        C668   1.263       .  A
O660        V664   1.897       .  S
O660        C667   1.262       .  A
C665        C718   1.482       .  S
C666        C728   1.477       .  S
C667        C738   1.463       .  S
C668        C751   1.463       .  S
O669       V1493   1.898       .  S
O669       C1495   1.263   1_655  A
O670        C680   1.264       .  A
O671        V677   1.898   1_554  S
O672       V1289   1.898   1_455  S
O672        C682   1.264       .  A
O673       V1290   1.899       .  S
O674        V678   1.899       .  S
O674        C681   1.263       .  A
O675       V1494   1.898   1_655  S
O675       C1496   1.264       .  A
O676        C679   1.264       .  A
V677       O1485   1.898       .  S
V677       O1284   1.898       .  S
V678       O1285   1.899       .  S
V678       O1491   1.898       .  S
C679       O1485   1.263       .  A
C679        C758   1.466       .  S
C680       O1491   1.264       .  A
C680        C771   1.473       .  S
C681        C701   1.464       .  S
C682        C708   1.482       .  S
O683        V691   1.898       .  S
O683        C693   1.263       .  A
O684        V691   1.900       .  S
O684        C694   1.264       .  A
O685        V691   1.900       .  S
O685        C695   1.265       .  A
O686        V691   1.897       .  S
O686        C696   1.262       .  A
O687        V692   1.901       .  S
O688        V692   1.897       .  S
O689        V692   1.898       .  S
O690        V692   1.900       .  S
C693        C721   1.464       .  S
C695        C698   1.479       .  S
C696        C711   1.464       .  S
C697        C702   1.398       .  A
C697        H704   1.084       .  S
C698        C699   1.409       .  A
C699        C700   1.398       .  A
C699        F706   1.357       .  S
C700        C701   1.400       .  A
C700        H705   1.084       .  S
C702        F703   1.357       .  S
C707        C708   1.407       .  A
C707        C712   1.397       .  A
C707        H714   1.083       .  S
C709        C710   1.398       .  A
C709        F716   1.357       .  S
C710        H715   1.084       .  S
C711        C712   1.401       .  A
C712        F713   1.357       .  S
C717        C722   1.399       .  A
C717        H724   1.083       .  S
C718        C719   1.411       .  A
C719        C720   1.397       .  A
C719        F726   1.357       .  S
C720        C721   1.398       .  A
C720        H725   1.083       .  S
C722        F723   1.358       .  S
C727        C728   1.405   1_556  A
C727        C732   1.398       .  A
C727        H734   1.083       .  S
C729        C730   1.398       .  A
C729        F736   1.357       .  S
C730        H735   1.084       .  S
C731        C732   1.403   1_554  A
C732        F733   1.358       .  S
C737        C738   1.399       .  A
C737        C742   1.398       .  A
C737        H744   1.084       .  S
C739        C740   1.398       .  A
C739        F746   1.358       .  S
C740        H745   1.083       .  S
C741        C742   1.411       .  A
C742        F743   1.357       .  S
C747        C748   1.408       .  A
C747        C752   1.398       .  A
C747        H754   1.083       .  S
C749        C750   1.398       .  A
C749        F756   1.357       .  S
C750        H755   1.084       .  S
C751        C752   1.401       .  A
C752        F753   1.358       .  S
C757        C758   1.400       .  A
C757        C762   1.398       .  A
C757        H764   1.083       .  S
C758       C1575   1.402       .  A
C759       C1574   1.402       .  A
C759        C760   1.399       .  A
C759        F766   1.358       .  S
C760       C1577   1.407   1_455  A
C760        H765   1.083       .  S
C761       C1576   1.407       .  A
C761        C762   1.410       .  A
C762        F763   1.358       .  S
C767       C1584   1.403       .  A
C767        C772   1.399       .  A
C767        H774   1.084       .  S
C768       C1583   1.403       .  A
C768        C769   1.405       .  A
C769        C770   1.398       .  A
C769        F776   1.358       .  S
C770        C771   1.404       .  A
C770        H775   1.084       .  S
C771       C1588   1.406       .  A
C772       C1587   1.406   1_455  A
C772        F773   1.357       .  S
C777        C782   1.398       .  A
C777        H784   1.084       .  S
C778        C779   1.403       .  A
C779        C780   1.399       .  A
C779        F786   1.358       .  S
C780        C781   1.405       .  A
C780        H785   1.083       .  S
C782        F783   1.358       .  S
C787        C792   1.398       .  A
C787        H794   1.084       .  S
C788        C789   1.404       .  A
C789        C790   1.398       .  A
C789        F796   1.358       .  S
C790        C791   1.404       .  A
C790        H795   1.084       .  S
C792        F793   1.358       .  S
C797       C1614   1.407       .  A
C797        C802   1.398       .  A
C797        H804   1.083       .  S
C798       C1613   1.407   1_455  A
C798        C799   1.411       .  A
C799        C800   1.398       .  A
C799        F806   1.357       .  S
C800        C801   1.399   1_455  A
C800        H805   1.084       .  S
C801       C1439   1.464       .  S
C801       C1618   1.401       .  A
C802       C1617   1.401       .  A
C802        F803   1.358       .  S
C807       C1624   1.399   1_455  A
C807        C812   1.398       .  A
C807        H814   1.084       .  S
C808       C1623   1.399       .  A
C808        C809   1.401       .  A
C809        C810   1.399       .  A
C809        F816   1.358       .  S
C810       C1627   1.408       .  A
C810        H815   1.083       .  S
C811       C1626   1.408   1_455  A
C811        C812   1.412       .  A
C812        F813   1.357       .  S
O818       V1233   1.899       .  S
O818        C828   1.263       .  A
O819        V825   1.898       .  S
O819       C1237   1.264       .  A
O820        C830   1.265   1_545  A
O821       C1238   1.264       .  A
O822        V826   1.900       .  S
O822        C829   1.265   1_545  A
O824       V1234   1.899       .  S
O824        C827   1.263       .  A
V825       O1226   1.899       .  S
V825       V1234   2.089       .  T
V826       O1232   1.899   1_545  S
V826       V1233   2.089       .  T
C828       C1012   1.463       .  S
C829       O1227   1.264       .  A
C829        C995   1.474       .  S
C830       O1229   1.264       .  A
C830        C985   1.477       .  S
O831        V839   1.903       .  S
O832        V839   1.900       .  S
O833        V839   1.899       .  S
O833        C843   1.264   1_655  A
O834        V839   1.897       .  S
O834        C844   1.264       .  A
O835        V840   1.901       .  S
O836        V840   1.900       .  S
O837        V840   1.898       .  S
O837        C842   1.264       .  A
O838        V840   1.896       .  S
O838        C841   1.264       .  A
C841       C1015   1.483       .  S
C842       C1002   1.482       .  S
C843        C972   1.471       .  S
C844        C965   1.480       .  S
O845        V853   1.899       .  S
O845       C1263   1.265       .  A
O846        V853   1.899       .  S
O846       C1264   1.265       .  A
O847        V853   1.900       .  S
O847        C857   1.264       .  A
O848        V853   1.899       .  S
O848        C858   1.264       .  A
O849        V854   1.900       .  S
O849       C1266   1.264       .  A
O850        V854   1.899       .  S
O850       C1265   1.264       .  A
O851        V854   1.899       .  S
O851        C856   1.265   1_545  A
O852        V854   1.899       .  S
O852        C855   1.265       .  A
V853       V1262   2.085       .  T
V854       V1261   2.085   1_545  T
C855       O1253   1.265   1_545  A
C855        C945   1.482       .  S
C856       O1254   1.265       .  A
C856        C952   1.482       .  S
C857       O1258   1.264       .  A
C857       C1400   1.469       .  S
C858       O1257   1.264       .  A
C858       C1390   1.468       .  S
O859        V867   1.896   1_556  S
O859        C869   1.264   1_556  A
O860       V1479   1.898       .  S
O860        C870   1.264       .  A
O861       V1071   1.900       .  S
O861       C1279   1.263       .  A
O862       V1275   1.898   1_565  S
O862        C872   1.263   1_565  A
O863       V1480   1.900   1_554  S
O863       C1280   1.263       .  A
O864        V868   1.897   1_565  S
O864        C871   1.262   1_565  A
O865       V1072   1.901       .  S
O865       C1074   1.265   1_556  A
O866       V1276   1.902       .  S
O866       C1073   1.266       .  A
V867       O1472   1.898       .  S
V867       O1065   1.900   1_554  S
V867       O1270   1.898       .  S
V867       V1480   2.088   1_554  T
V868       O1475   1.900       .  S
V868       O1069   1.901       .  S
V868       O1274   1.902   1_545  S
V868       V1479   2.088       .  T
C869       O1070   1.266       .  A
C869        C922   1.482       .  S
C870       O1069   1.265       .  A
C870        C932   1.477       .  S
C871       O1269   1.263       .  A
C871        C942   1.463       .  S
C872       O1271   1.263       .  A
C872        C955   1.463       .  S
O874       V1085   1.900   1_454  S
O874        C884   1.264   1_455  A
O875        V881   1.898       .  S
O875       C1089   1.263       .  A
O876        C886   1.264       .  A
O877       C1090   1.265       .  A
O878        V882   1.899   1_656  S
O878        C885   1.263       .  A
O880       V1086   1.900       .  S
O880        C883   1.264       .  A
V881       O1078   1.900   1_655  S
V881       V1086   2.088   1_655  T
V882       O1084   1.900   1_554  S
V882       V1085   2.088   1_454  T
C883        C962   1.466       .  S
C884        C975   1.473       .  S
C885       O1079   1.263   1_556  A
C885        C905   1.464       .  S
C886       O1081   1.265   1_556  A
C886        C912   1.482       .  S
O887        V895   1.898       .  S
O887        C897   1.263   1_554  A
O888        V895   1.900       .  S
O888        C898   1.264       .  A
O889        V895   1.900       .  S
O889        C899   1.265       .  A
O890        V895   1.897       .  S
O890        C900   1.262   1_554  A
O891        V896   1.901       .  S
O891       C1104   1.264       .  A
O892        V896   1.897       .  S
O892       C1103   1.264       .  A
O893        V896   1.898       .  S
O893       C1102   1.263       .  A
O894        V896   1.900       .  S
O894       C1101   1.263       .  A
V895       V1100   2.089   1_554  T
V896       V1099   2.089       .  T
C897       O1098   1.263       .  A
C897        C925   1.464       .  S
C898       O1097   1.263   1_554  A
C898       C1139   1.467       .  S
C899       O1096   1.264   1_554  A
C899        C902   1.479       .  S
C900       O1095   1.264       .  A
C900        C915   1.464       .  S
C901       C1106   1.407       .  A
C901        C906   1.398       .  A
C901        H908   1.084       .  S
C902       C1105   1.407   1_554  A
C902        C903   1.409       .  A
C903        C904   1.398       .  A
C903        F910   1.357       .  S
C904        C905   1.400   1_554  A
C904        H909   1.084       .  S
C905       C1110   1.401       .  A
C906       C1109   1.401       .  A
C906        F907   1.357       .  S
C911        C912   1.407   1_554  A
C911        C916   1.397       .  A
C911        H918   1.083       .  S
C912       C1117   1.411       .  A
C913       C1116   1.411       .  A
C913        C914   1.398       .  A
C913        F920   1.357       .  S
C914       C1119   1.399       .  A
C914        H919   1.084       .  S
C915       C1118   1.399       .  A
C915        C916   1.401   1_556  A
C916        F917   1.357       .  S
C921       C1126   1.408       .  A
C921        C926   1.399       .  A
C921        H928   1.083       .  S
C922       C1125   1.408   1_554  A
C922        C923   1.411       .  A
C923        C924   1.397       .  A
C923        F930   1.357       .  S
C924        C925   1.398   1_554  A
C924        H929   1.083       .  S
C925       C1130   1.401       .  A
C926       C1129   1.401       .  A
C926        F927   1.358       .  S
C931        C932   1.405       .  A
C931        C936   1.398       .  A
C931        H938   1.083       .  S
C932       C1137   1.409       .  A
C933       C1136   1.409       .  A
C933        C934   1.398       .  A
C933        F940   1.357       .  S
C934       C1139   1.401       .  A
C934        H939   1.084       .  S
C935       C1102   1.467       .  S
C935       C1138   1.401       .  A
C935        C936   1.403       .  A
C936        F937   1.358       .  S
C941        C942   1.399       .  A
C941        C946   1.398       .  A
C941        H948   1.084       .  S
C942       C1351   1.401   1_545  A
C943       C1350   1.401       .  A
C943        C944   1.398       .  A
C943        F950   1.358       .  S
C944       C1353   1.408       .  A
C944        H949   1.083       .  S
C945       C1352   1.408   1_545  A
C945        C946   1.411       .  A
C946        F947   1.357       .  S
C951        C952   1.408   1_545  A
C951        C956   1.398       .  A
C951        H958   1.083       .  S
C952       C1361   1.411       .  A
C953       C1360   1.411       .  A
C953        C954   1.398       .  A
C953        F960   1.357       .  S
C954       C1363   1.399       .  A
C954        H959   1.084       .  S
C955       C1362   1.399   1_545  A
C955        C956   1.401       .  A
C956        F957   1.358       .  S
C961        C962   1.400   1_655  A
C961        C966   1.398       .  A
C961        H968   1.083       .  S
C963        C964   1.399       .  A
C963        F970   1.358       .  S
C964        H969   1.083       .  S
C965        C966   1.410       .  A
C966        F967   1.358       .  S
C971        C976   1.399       .  A
C971        H978   1.084       .  S
C972        C973   1.405   1_455  A
C973        C974   1.398       .  A
C973        F980   1.358       .  S
C974        C975   1.404       .  A
C974        H979   1.084       .  S
C976        F977   1.357       .  S
C981       C1390   1.401       .  A
C981        C986   1.398       .  A
C981        H988   1.084       .  S
C982       C1266   1.468       .  S
C982       C1389   1.401   1_545  A
C982        C983   1.403       .  A
C983        C984   1.399       .  A
C983        F990   1.358       .  S
C984        C985   1.405   1_545  A
C984        H989   1.083       .  S
C985       C1394   1.408       .  A
C986       C1393   1.408       .  A
C986        F987   1.358       .  S
C991       C1400   1.402       .  A
C991        C996   1.398       .  A
C991        H998   1.084       .  S
C992       C1265   1.469       .  S
C992       C1399   1.402   1_545  A
C992        C993   1.404       .  A
C993        C994   1.398       .  A
C993       F1000   1.358       .  S
C994        C995   1.404   1_545  A
C994        H999   1.084       .  S
C995       C1404   1.407       .  A
C996       C1403   1.407       .  A
C996        F997   1.358       .  S
C1001      C1006   1.398       .  A
C1001      H1008   1.083       .  S
C1002      C1003   1.411       .  A
C1003      C1004   1.398       .  A
C1003      F1010   1.357       .  S
C1004      C1005   1.399       .  A
C1004      H1009   1.084       .  S
C1006      F1007   1.358       .  S
C1011      C1016   1.398       .  A
C1011      H1018   1.084       .  S
C1012      C1013   1.401       .  A
C1013      C1014   1.399       .  A
C1013      F1020   1.358       .  S
C1014      H1019   1.083       .  S
C1015      C1016   1.412       .  A
C1016      F1017   1.357       .  S
O1022      V1437   1.899       .  S
O1022      C1032   1.263       .  A
O1023      V1029   1.898       .  S
O1023      C1441   1.264       .  A
O1024      C1034   1.265   1_545  A
O1025      C1442   1.264       .  A
O1026      V1030   1.900       .  S
O1026      C1033   1.265   1_545  A
O1028      V1438   1.899       .  S
O1028      C1031   1.263       .  A
V1029      O1430   1.899       .  S
V1029      V1438   2.089       .  T
V1030      O1436   1.899   1_545  S
V1030      V1437   2.089       .  T
C1032      C1216   1.463       .  S
C1033      O1431   1.264       .  A
C1033      C1199   1.474       .  S
C1034      O1433   1.264       .  A
C1034      C1189   1.477       .  S
O1035      V1043   1.903       .  S
O1036      V1043   1.900       .  S
O1037      V1043   1.899       .  S
O1037      C1047   1.264   1_655  A
O1038      V1043   1.897       .  S
O1038      C1048   1.264       .  A
O1039      V1044   1.901       .  S
O1040      V1044   1.900       .  S
O1041      V1044   1.898       .  S
O1041      C1046   1.264       .  A
O1042      V1044   1.896       .  S
O1042      C1045   1.264       .  A
C1045      C1219   1.483       .  S
C1046      C1206   1.482       .  S
C1047      C1176   1.471       .  S
C1048      C1169   1.480       .  S
O1049      V1057   1.899       .  S
O1049      C1467   1.265       .  A
O1050      V1057   1.899       .  S
O1050      C1468   1.265       .  A
O1051      V1057   1.900       .  S
O1051      C1061   1.264       .  A
O1052      V1057   1.899       .  S
O1052      C1062   1.264       .  A
O1053      V1058   1.900       .  S
O1053      C1470   1.264       .  A
O1054      V1058   1.899       .  S
O1054      C1469   1.264       .  A
O1055      V1058   1.899       .  S
O1055      C1060   1.265   1_545  A
O1056      V1058   1.899       .  S
O1056      C1059   1.265       .  A
V1057      V1466   2.085       .  T
V1058      V1465   2.085   1_545  T
C1059      O1457   1.265   1_545  A
C1059      C1149   1.482       .  S
C1060      O1458   1.265       .  A
C1060      C1156   1.482       .  S
C1061      O1462   1.264       .  A
C1061      C1604   1.469       .  S
C1062      O1461   1.264       .  A
C1062      C1594   1.468       .  S
O1063      V1071   1.896       .  S
O1063      C1073   1.264       .  A
O1064      V1275   1.898       .  S
O1064      C1074   1.264       .  A
O1065      C1483   1.263       .  A
O1066      V1479   1.898   1_565  S
O1066      C1076   1.263   1_565  A
O1067      V1276   1.900       .  S
O1067      C1484   1.263       .  A
O1068      V1072   1.897   1_565  S
O1068      C1075   1.262   1_565  A
O1070      V1480   1.902   1_554  S
V1071      O1268   1.898       .  S
V1071      O1474   1.898       .  S
V1071      V1276   2.088       .  T
V1072      O1271   1.900   1_556  S
V1072      O1478   1.902   1_546  S
V1072      V1275   2.088   1_556  T
C1073      C1126   1.482       .  S
C1074      C1136   1.477       .  S
C1075      O1473   1.263       .  A
C1075      C1146   1.463       .  S
C1076      O1475   1.263       .  A
C1076      C1159   1.463       .  S
O1078      C1088   1.264   1_455  A
O1079      V1085   1.898   1_554  S
O1080      C1090   1.264       .  A
O1082      V1086   1.899   1_655  S
O1082      C1089   1.263       .  A
O1084      C1087   1.264       .  A
C1087      C1166   1.466       .  S
C1088      C1179   1.473       .  S
C1089      C1109   1.464       .  S
C1090      C1116   1.482       .  S
O1091      V1099   1.898       .  S
O1091      C1101   1.263       .  A
O1092      V1099   1.900       .  S
O1092      C1102   1.264       .  A
O1093      V1099   1.900       .  S
O1093      C1103   1.265       .  A
O1094      V1099   1.897       .  S
O1094      C1104   1.262       .  A
O1095      V1100   1.901       .  S
O1096      V1100   1.897       .  S
O1097      V1100   1.898       .  S
O1098      V1100   1.900       .  S
C1101      C1129   1.464       .  S
C1103      C1106   1.479       .  S
C1104      C1119   1.464       .  S
C1105      C1110   1.398       .  A
C1105      H1112   1.084       .  S
C1106      C1107   1.409       .  A
C1107      C1108   1.398       .  A
C1107      F1114   1.357       .  S
C1108      C1109   1.400       .  A
C1108      H1113   1.084       .  S
C1110      F1111   1.357       .  S
C1115      C1116   1.407       .  A
C1115      C1120   1.397       .  A
C1115      H1122   1.083       .  S
C1117      C1118   1.398       .  A
C1117      F1124   1.357       .  S
C1118      H1123   1.084       .  S
C1119      C1120   1.401       .  A
C1120      F1121   1.357       .  S
C1125      C1130   1.399       .  A
C1125      H1132   1.083       .  S
C1126      C1127   1.411       .  A
C1127      C1128   1.397       .  A
C1127      F1134   1.357       .  S
C1128      C1129   1.398       .  A
C1128      H1133   1.083       .  S
C1130      F1131   1.358       .  S
C1135      C1136   1.405   1_556  A
C1135      C1140   1.398       .  A
C1135      H1142   1.083       .  S
C1137      C1138   1.398       .  A
C1137      F1144   1.357       .  S
C1138      H1143   1.084       .  S
C1139      C1140   1.403   1_554  A
C1140      F1141   1.358       .  S
C1145      C1146   1.399       .  A
C1145      C1150   1.398       .  A
C1145      H1152   1.084       .  S
C1146      C1555   1.401   1_545  A
C1147      C1554   1.401       .  A
C1147      C1148   1.398       .  A
C1147      F1154   1.358       .  S
C1148      C1557   1.408       .  A
C1148      H1153   1.083       .  S
C1149      C1556   1.408   1_545  A
C1149      C1150   1.411       .  A
C1150      F1151   1.357       .  S
C1155      C1156   1.408   1_545  A
C1155      C1160   1.398       .  A
C1155      H1162   1.083       .  S
C1156      C1565   1.411       .  A
C1157      C1564   1.411       .  A
C1157      C1158   1.398       .  A
C1157      F1164   1.357       .  S
C1158      C1567   1.399       .  A
C1158      H1163   1.084       .  S
C1159      C1566   1.399   1_545  A
C1159      C1160   1.401       .  A
C1160      F1161   1.358       .  S
C1165      C1166   1.400   1_655  A
C1165      C1170   1.398       .  A
C1165      H1172   1.083       .  S
C1167      C1168   1.399       .  A
C1167      F1174   1.358       .  S
C1168      H1173   1.083       .  S
C1169      C1170   1.410       .  A
C1170      F1171   1.358       .  S
C1175      C1180   1.399       .  A
C1175      H1182   1.084       .  S
C1176      C1177   1.405   1_455  A
C1177      C1178   1.398       .  A
C1177      F1184   1.358       .  S
C1178      C1179   1.404       .  A
C1178      H1183   1.084       .  S
C1180      F1181   1.357       .  S
C1185      C1594   1.401       .  A
C1185      C1190   1.398       .  A
C1185      H1192   1.084       .  S
C1186      C1470   1.468       .  S
C1186      C1593   1.401   1_545  A
C1186      C1187   1.403       .  A
C1187      C1188   1.399       .  A
C1187      F1194   1.358       .  S
C1188      C1189   1.405   1_545  A
C1188      H1193   1.083       .  S
C1189      C1598   1.408       .  A
C1190      C1597   1.408       .  A
C1190      F1191   1.358       .  S
C1195      C1604   1.402       .  A
C1195      C1200   1.398       .  A
C1195      H1202   1.084       .  S
C1196      C1469   1.469       .  S
C1196      C1603   1.402   1_545  A
C1196      C1197   1.404       .  A
C1197      C1198   1.398       .  A
C1197      F1204   1.358       .  S
C1198      C1199   1.404   1_545  A
C1198      H1203   1.084       .  S
C1199      C1608   1.407       .  A
C1200      C1607   1.407       .  A
C1200      F1201   1.358       .  S
C1205      C1210   1.398       .  A
C1205      H1212   1.083       .  S
C1206      C1207   1.411       .  A
C1207      C1208   1.398       .  A
C1207      F1214   1.357       .  S
C1208      C1209   1.399       .  A
C1208      H1213   1.084       .  S
C1210      F1211   1.358       .  S
C1215      C1220   1.398       .  A
C1215      H1222   1.084       .  S
C1216      C1217   1.401       .  A
C1217      C1218   1.399       .  A
C1217      F1224   1.358       .  S
C1218      H1223   1.083       .  S
C1219      C1220   1.412       .  A
C1220      F1221   1.357       .  S
O1226      C1236   1.263       .  A
O1227      V1233   1.898   1_565  S
O1228      C1238   1.265       .  A
O1230      V1234   1.900       .  S
O1230      C1237   1.265       .  A
O1232      C1235   1.263       .  A
C1236      C1420   1.463       .  S
C1237      C1403   1.474       .  S
C1238      C1393   1.477       .  S
O1239      V1247   1.903       .  S
O1240      V1247   1.900       .  S
O1241      V1247   1.899       .  S
O1241      C1251   1.264   1_655  A
O1242      V1247   1.897       .  S
O1242      C1252   1.264       .  A
O1243      V1248   1.901       .  S
O1244      V1248   1.900       .  S
O1245      V1248   1.898       .  S
O1245      C1250   1.264       .  A
O1246      V1248   1.896       .  S
O1246      C1249   1.264       .  A
C1249      C1423   1.483       .  S
C1250      C1410   1.482       .  S
C1251      C1380   1.471       .  S
C1252      C1373   1.480       .  S
O1253      V1261   1.899       .  S
O1254      V1261   1.899       .  S
O1255      V1261   1.900       .  S
O1255      C1265   1.264   1_565  A
O1256      V1261   1.899       .  S
O1256      C1266   1.264   1_565  A
O1257      V1262   1.900       .  S
O1258      V1262   1.899       .  S
O1259      V1262   1.899       .  S
O1259      C1264   1.265       .  A
O1260      V1262   1.899       .  S
O1260      C1263   1.265       .  A
C1263      C1353   1.482       .  S
C1264      C1360   1.482       .  S
O1267      V1275   1.896   1_566  S
O1267      C1277   1.264   1_556  A
O1268      C1278   1.264       .  A
O1269      V1479   1.900       .  S
O1270      C1280   1.263       .  A
O1272      V1276   1.897       .  S
O1272      C1279   1.262       .  A
O1273      V1480   1.901       .  S
O1273      C1482   1.265   1_556  A
O1274      C1481   1.266       .  A
V1275      O1473   1.900   1_554  S
V1276      O1477   1.901       .  S
C1277      O1478   1.266       .  A
C1277      C1330   1.482       .  S
C1278      O1477   1.265       .  A
C1278      C1340   1.477       .  S
C1279      C1350   1.463       .  S
C1280      C1363   1.463       .  S
O1282      V1493   1.900   1_454  S
O1282      C1292   1.264   1_455  A
O1283      V1289   1.898       .  S
O1283      C1497   1.263       .  A
O1284      C1294   1.264       .  A
O1285      C1498   1.265       .  A
O1286      V1290   1.899   1_656  S
O1286      C1293   1.263       .  A
O1288      V1494   1.900       .  S
O1288      C1291   1.264       .  A
V1289      O1486   1.900   1_655  S
V1289      V1494   2.088   1_655  T
V1290      O1492   1.900   1_554  S
V1290      V1493   2.088   1_454  T
C1291      C1370   1.466       .  S
C1292      C1383   1.473       .  S
C1293      O1487   1.263   1_556  A
C1293      C1313   1.464       .  S
C1294      O1489   1.265   1_556  A
C1294      C1320   1.482       .  S
O1295      V1303   1.898       .  S
O1295      C1305   1.263   1_554  A
O1296      V1303   1.900       .  S
O1296      C1306   1.264       .  A
O1297      V1303   1.900       .  S
O1297      C1307   1.265       .  A
O1298      V1303   1.897       .  S
O1298      C1308   1.262   1_554  A
O1299      V1304   1.901       .  S
O1299      C1512   1.264       .  A
O1300      V1304   1.897       .  S
O1300      C1511   1.264       .  A
O1301      V1304   1.898       .  S
O1301      C1510   1.263       .  A
O1302      V1304   1.900       .  S
O1302      C1509   1.263       .  A
V1303      V1508   2.089   1_554  T
V1304      V1507   2.089       .  T
C1305      O1506   1.263       .  A
C1305      C1333   1.464       .  S
C1306      O1505   1.263   1_554  A
C1306      C1547   1.467       .  S
C1307      O1504   1.264   1_554  A
C1307      C1310   1.479       .  S
C1308      O1503   1.264       .  A
C1308      C1323   1.464       .  S
C1309      C1514   1.407       .  A
C1309      C1314   1.398       .  A
C1309      H1316   1.084       .  S
C1310      C1513   1.407   1_554  A
C1310      C1311   1.409       .  A
C1311      C1312   1.398       .  A
C1311      F1318   1.357       .  S
C1312      C1313   1.400   1_554  A
C1312      H1317   1.084       .  S
C1313      C1518   1.401       .  A
C1314      C1517   1.401       .  A
C1314      F1315   1.357       .  S
C1319      C1320   1.407   1_554  A
C1319      C1324   1.397       .  A
C1319      H1326   1.083       .  S
C1320      C1525   1.411       .  A
C1321      C1524   1.411       .  A
C1321      C1322   1.398       .  A
C1321      F1328   1.357       .  S
C1322      C1527   1.399       .  A
C1322      H1327   1.084       .  S
C1323      C1526   1.399       .  A
C1323      C1324   1.401   1_556  A
C1324      F1325   1.357       .  S
C1329      C1534   1.408       .  A
C1329      C1334   1.399       .  A
C1329      H1336   1.083       .  S
C1330      C1533   1.408   1_554  A
C1330      C1331   1.411       .  A
C1331      C1332   1.397       .  A
C1331      F1338   1.357       .  S
C1332      C1333   1.398   1_554  A
C1332      H1337   1.083       .  S
C1333      C1538   1.401       .  A
C1334      C1537   1.401       .  A
C1334      F1335   1.358       .  S
C1339      C1340   1.405       .  A
C1339      C1344   1.398       .  A
C1339      H1346   1.083       .  S
C1340      C1545   1.409       .  A
C1341      C1544   1.409       .  A
C1341      C1342   1.398       .  A
C1341      F1348   1.357       .  S
C1342      C1547   1.401       .  A
C1342      H1347   1.084       .  S
C1343      C1510   1.467       .  S
C1343      C1546   1.401       .  A
C1343      C1344   1.403       .  A
C1344      F1345   1.358       .  S
C1349      C1350   1.399       .  A
C1349      C1354   1.398       .  A
C1349      H1356   1.084       .  S
C1351      C1352   1.398       .  A
C1351      F1358   1.358       .  S
C1352      H1357   1.083       .  S
C1353      C1354   1.411       .  A
C1354      F1355   1.357       .  S
C1359      C1360   1.408       .  A
C1359      C1364   1.398       .  A
C1359      H1366   1.083       .  S
C1361      C1362   1.398       .  A
C1361      F1368   1.357       .  S
C1362      H1367   1.084       .  S
C1363      C1364   1.401       .  A
C1364      F1365   1.358       .  S
C1369      C1370   1.400   1_655  A
C1369      C1374   1.398       .  A
C1369      H1376   1.083       .  S
C1371      C1372   1.399       .  A
C1371      F1378   1.358       .  S
C1372      H1377   1.083       .  S
C1373      C1374   1.410       .  A
C1374      F1375   1.358       .  S
C1379      C1384   1.399       .  A
C1379      H1386   1.084       .  S
C1380      C1381   1.405   1_455  A
C1381      C1382   1.398       .  A
C1381      F1388   1.358       .  S
C1382      C1383   1.404       .  A
C1382      H1387   1.084       .  S
C1384      F1385   1.357       .  S
C1389      C1394   1.398       .  A
C1389      H1396   1.084       .  S
C1390      C1391   1.403       .  A
C1391      C1392   1.399       .  A
C1391      F1398   1.358       .  S
C1392      C1393   1.405       .  A
C1392      H1397   1.083       .  S
C1394      F1395   1.358       .  S
C1399      C1404   1.398       .  A
C1399      H1406   1.084       .  S
C1400      C1401   1.404       .  A
C1401      C1402   1.398       .  A
C1401      F1408   1.358       .  S
C1402      C1403   1.404       .  A
C1402      H1407   1.084       .  S
C1404      F1405   1.358       .  S
C1409      C1414   1.398       .  A
C1409      H1416   1.083       .  S
C1410      C1411   1.411       .  A
C1411      C1412   1.398       .  A
C1411      F1418   1.357       .  S
C1412      C1413   1.399       .  A
C1412      H1417   1.084       .  S
C1414      F1415   1.358       .  S
C1419      C1424   1.398       .  A
C1419      H1426   1.084       .  S
C1420      C1421   1.401       .  A
C1421      C1422   1.399       .  A
C1421      F1428   1.358       .  S
C1422      H1427   1.083       .  S
C1423      C1424   1.412       .  A
C1424      F1425   1.357       .  S
O1430      C1440   1.263       .  A
O1431      V1437   1.898   1_565  S
O1432      C1442   1.265       .  A
O1434      V1438   1.900       .  S
O1434      C1441   1.265       .  A
O1436      C1439   1.263       .  A
C1440      C1624   1.463       .  S
C1441      C1607   1.474       .  S
C1442      C1597   1.477       .  S
O1443      V1451   1.903       .  S
O1444      V1451   1.900       .  S
O1445      V1451   1.899       .  S
O1445      C1455   1.264   1_655  A
O1446      V1451   1.897       .  S
O1446      C1456   1.264       .  A
O1447      V1452   1.901       .  S
O1448      V1452   1.900       .  S
O1449      V1452   1.898       .  S
O1449      C1454   1.264       .  A
O1450      V1452   1.896       .  S
O1450      C1453   1.264       .  A
C1453      C1627   1.483       .  S
C1454      C1614   1.482       .  S
C1455      C1584   1.471       .  S
C1456      C1577   1.480       .  S
O1457      V1465   1.899       .  S
O1458      V1465   1.899       .  S
O1459      V1465   1.900       .  S
O1459      C1469   1.264   1_565  A
O1460      V1465   1.899       .  S
O1460      C1470   1.264   1_565  A
O1461      V1466   1.900       .  S
O1462      V1466   1.899       .  S
O1463      V1466   1.899       .  S
O1463      C1468   1.265       .  A
O1464      V1466   1.899       .  S
O1464      C1467   1.265       .  A
C1467      C1557   1.482       .  S
C1468      C1564   1.482       .  S
O1471      V1479   1.896   1_565  S
O1471      C1481   1.264       .  A
O1472      C1482   1.264       .  A
O1474      C1484   1.263       .  A
O1476      V1480   1.897       .  S
O1476      C1483   1.262       .  A
C1481      C1534   1.482       .  S
C1482      C1544   1.477       .  S
C1483      C1554   1.463       .  S
C1484      C1567   1.463       .  S
O1486      C1496   1.264   1_455  A
O1487      V1493   1.898   1_554  S
O1488      C1498   1.264       .  A
O1490      V1494   1.899   1_655  S
O1490      C1497   1.263       .  A
O1492      C1495   1.264       .  A
C1495      C1574   1.466       .  S
C1496      C1587   1.473       .  S
C1497      C1517   1.464       .  S
C1498      C1524   1.482       .  S
O1499      V1507   1.898       .  S
O1499      C1509   1.263       .  A
O1500      V1507   1.900       .  S
O1500      C1510   1.264       .  A
O1501      V1507   1.900       .  S
O1501      C1511   1.265       .  A
O1502      V1507   1.897       .  S
O1502      C1512   1.262       .  A
O1503      V1508   1.901       .  S
O1504      V1508   1.897       .  S
O1505      V1508   1.898       .  S
O1506      V1508   1.900       .  S
C1509      C1537   1.464       .  S
C1511      C1514   1.479       .  S
C1512      C1527   1.464       .  S
C1513      C1518   1.398       .  A
C1513      H1520   1.084       .  S
C1514      C1515   1.409       .  A
C1515      C1516   1.398       .  A
C1515      F1522   1.357       .  S
C1516      C1517   1.400       .  A
C1516      H1521   1.084       .  S
C1518      F1519   1.357       .  S
C1523      C1524   1.407       .  A
C1523      C1528   1.397       .  A
C1523      H1530   1.083       .  S
C1525      C1526   1.398       .  A
C1525      F1532   1.357       .  S
C1526      H1531   1.084       .  S
C1527      C1528   1.401       .  A
C1528      F1529   1.357       .  S
C1533      C1538   1.399       .  A
C1533      H1540   1.083       .  S
C1534      C1535   1.411       .  A
C1535      C1536   1.397       .  A
C1535      F1542   1.357       .  S
C1536      C1537   1.398       .  A
C1536      H1541   1.083       .  S
C1538      F1539   1.358       .  S
C1543      C1544   1.405   1_556  A
C1543      C1548   1.398       .  A
C1543      H1550   1.083       .  S
C1545      C1546   1.398       .  A
C1545      F1552   1.357       .  S
C1546      H1551   1.084       .  S
C1547      C1548   1.403   1_554  A
C1548      F1549   1.358       .  S
C1553      C1554   1.399       .  A
C1553      C1558   1.398       .  A
C1553      H1560   1.084       .  S
C1555      C1556   1.398       .  A
C1555      F1562   1.358       .  S
C1556      H1561   1.083       .  S
C1557      C1558   1.411       .  A
C1558      F1559   1.357       .  S
C1563      C1564   1.408       .  A
C1563      C1568   1.398       .  A
C1563      H1570   1.083       .  S
C1565      C1566   1.398       .  A
C1565      F1572   1.357       .  S
C1566      H1571   1.084       .  S
C1567      C1568   1.401       .  A
C1568      F1569   1.358       .  S
C1573      C1574   1.400   1_655  A
C1573      C1578   1.398       .  A
C1573      H1580   1.083       .  S
C1575      C1576   1.399       .  A
C1575      F1582   1.358       .  S
C1576      H1581   1.083       .  S
C1577      C1578   1.410       .  A
C1578      F1579   1.358       .  S
C1583      C1588   1.399       .  A
C1583      H1590   1.084       .  S
C1584      C1585   1.405   1_455  A
C1585      C1586   1.398       .  A
C1585      F1592   1.358       .  S
C1586      C1587   1.404       .  A
C1586      H1591   1.084       .  S
C1588      F1589   1.357       .  S
C1593      C1598   1.398       .  A
C1593      H1600   1.084       .  S
C1594      C1595   1.403       .  A
C1595      C1596   1.399       .  A
C1595      F1602   1.358       .  S
C1596      C1597   1.405       .  A
C1596      H1601   1.083       .  S
C1598      F1599   1.358       .  S
C1603      C1608   1.398       .  A
C1603      H1610   1.084       .  S
C1604      C1605   1.404       .  A
C1605      C1606   1.398       .  A
C1605      F1612   1.358       .  S
C1606      C1607   1.404       .  A
C1606      H1611   1.084       .  S
C1608      F1609   1.358       .  S
C1613      C1618   1.398       .  A
C1613      H1620   1.083       .  S
C1614      C1615   1.411       .  A
C1615      C1616   1.398       .  A
C1615      F1622   1.357       .  S
C1616      C1617   1.399       .  A
C1616      H1621   1.084       .  S
C1618      F1619   1.358       .  S
C1623      C1628   1.398       .  A
C1623      H1630   1.084       .  S
C1624      C1625   1.401       .  A
C1625      C1626   1.399       .  A
C1625      F1632   1.358       .  S
C1626      H1631   1.083       .  S
C1627      C1628   1.412       .  A
C1628      F1629   1.357       .  S
