geometry optimzed in LAMMPS
_audit_creation_date              2020-12-01 
_audit_creation_method            'lammps2cif' 
_symmetry_space_group_name_H-M    'P1' 
_symmetry_Int_Tables_number       1 
_symmetry_cell_setting            triclinic 
loop_ 
_symmetry_equiv_pos_as_xyz 
  x,y,z 
_cell_length_a                    48.9033041 
_cell_length_b                    28.713932219392323 
_cell_length_c                    63.004916557783304 
_cell_angle_alpha                 89.93618061189156 
_cell_angle_beta                  89.90216069313807 
_cell_angle_gamma                 89.59206394740583 
loop_ 
_atom_site_label 
_atom_site_type_symbol 
_atom_site_fract_x 
_atom_site_fract_y 
_atom_site_fract_z 
_atom_site_charge 
C1          C  0.65547122  0.16034373  0.46882133     0.79600
N2          N  0.65547555  0.11701014  0.47730813    -0.78700
C3          C  0.67338632  0.10517247  0.49285264     0.82000
N4          N  0.69183102  0.13711007  0.49972348    -0.78700
C5          C  0.69190117  0.18102960  0.49147795     0.82100
N6          N  0.67342262  0.19224731  0.47613805    -0.80400
C7          C  0.79436986  0.36673472  0.54069710     0.79600
N8          N  0.78598817  0.41034688  0.53538100    -0.78700
C9          C  0.76394178  0.41696147  0.52268577     0.82000
N10         N  0.75034603  0.37948604  0.51504667    -0.78700
C11         C  0.75836009  0.33553183  0.52035911     0.82100
N12         N  0.78029700  0.32941797  0.53334021    -0.80400
C13         C  0.64209788  0.85527894  0.53920777     0.79600
N14         N  0.66055591  0.82305799  0.53258868    -0.78700
C15         C  0.68224626  0.83565046  0.52050979     0.82000
N16         N  0.68576865  0.88123731  0.51529800    -0.78700
C17         C  0.66776088  0.91416769  0.52232759     0.82100
N18         N  0.64587660  0.90073009  0.53414241    -0.80400
C19         C  0.78646939  0.65479822  0.47032667     0.79600
N20         N  0.78045492  0.61111377  0.47688140    -0.78700
C21         C  0.76021095  0.60365607  0.49116908     0.82000
N22         N  0.74606205  0.64056405  0.49919481    -0.78700
C23         C  0.75183979  0.68460788  0.49260593     0.82100
N24         N  0.77196547  0.69148479  0.47806144    -0.80400
C25         C  0.28903263  0.83880259  0.54106819     0.79600
N26         N  0.28673856  0.88228644  0.53277648    -0.78700
C27         C  0.26873831  0.89140465  0.51689971     0.82000
N28         N  0.25279833  0.85663894  0.50929154    -0.78700
C29         C  0.25505014  0.81293816  0.51746886     0.82100
N30         N  0.27339657  0.80412544  0.53310893    -0.80400
C31         C  0.15129179  0.63273982  0.46913576     0.79600
N32         N  0.16826694  0.66807720  0.47434335    -0.78700
C33         C  0.19133715  0.65982576  0.48570956     0.82000
N34         N  0.19712619  0.61577614  0.49228258    -0.78700
C35         C  0.18044113  0.58002652  0.48698873     0.82100
N36         N  0.15763198  0.58859006  0.47529710    -0.80400
C37         C  0.29590127  0.13250483  0.46270236     0.79600
N38         N  0.29208752  0.08851703  0.47003534    -0.78700
C39         C  0.27158663  0.07901133  0.48389299     0.82000
N40         N  0.25490068  0.11405382  0.49060927    -0.78700
C41         C  0.25836382  0.15818594  0.48330303     0.82100
N42         N  0.27905573  0.16735282  0.46947513    -0.80400
C43         C  0.16497548  0.34244700  0.54335479     0.79600
N44         N  0.18000746  0.30615534  0.53568195    -0.78700
C45         C  0.19916370  0.31323708  0.52035163     0.82000
N46         N  0.20260454  0.35673061  0.51222909    -0.78700
C47         C  0.18752393  0.39312724  0.51967248     0.82100
N48         N  0.16881328  0.38565930  0.53521592    -0.80400
N49         N  0.91249094  0.66717509  0.39098654    -0.27900
N50         N  0.92570596  0.66785205  0.40924994    -0.35800
C51         C  0.90758536  0.66645722  0.42523528     0.00400
C52         C  0.88161868  0.66452062  0.41669674     0.06400
C53         C  0.88543762  0.66524895  0.39489502    -0.06700
H54         H  0.91293884  0.66691726  0.44188679     0.07100
H55         H  0.86977613  0.66517086  0.38279016     0.08300
Cu56       Cu  0.96763064  0.67156555  0.41190157     0.44200
Cu57       Cu  0.93247304  0.67061159  0.36194830     0.42000
Cu58       Cu  0.00709448  0.68251551  0.36393412     0.43900
N59         N  0.00972869  0.67434175  0.41146471    -0.35300
N60         N  0.02442441  0.67831442  0.39395399    -0.29600
C61         C  0.05110084  0.67712920  0.39912644    -0.05700
C62         C  0.05323609  0.67256940  0.42098432     0.06500
C63         C  0.02654101  0.67061164  0.42820521     0.00300
H64         H  0.06766403  0.67810255  0.38773148     0.08000
H65         H  0.01978239  0.66598287  0.44442824     0.07100
N66         N  0.98427521  0.68290173  0.33614332    -0.36800
N67         N  0.95739367  0.67820706  0.33546780    -0.29000
C68         C  0.94924327  0.67920226  0.31510685    -0.04200
C69         C  0.97197211  0.68531016  0.30230878     0.04400
C70         C  0.99386650  0.68704492  0.31620635     0.02500
H71         H  0.92823790  0.67587942  0.30998697     0.07600
H72         H  0.01526605  0.69043434  0.31215887     0.06500
N73         N  0.91652226  0.68096564  0.12035809    -0.27900
N74         N  0.93030049  0.68451688  0.10236920    -0.35800
C75         C  0.91312011  0.67852180  0.08603208     0.00400
C76         C  0.88727949  0.67044274  0.09407919     0.06400
C77         C  0.89007554  0.67266364  0.11591062    -0.06700
H78         H  0.91920431  0.67841704  0.06950563     0.07100
H79         H  0.87431814  0.66683223  0.12767348     0.08300
Cu80       Cu  0.97219633  0.69256634  0.10057364     0.44200
Cu81       Cu  0.93518246  0.68431961  0.14984391     0.42000
Cu82       Cu  0.01021726  0.68911964  0.14938942     0.43900
N83         N  0.01429558  0.68629181  0.10175142    -0.35300
N84         N  0.02851518  0.68485106  0.11956764    -0.29600
C85         C  0.05507383  0.67748096  0.11479101    -0.05700
C86         C  0.05748241  0.67360789  0.09295103     0.06500
C87         C  0.03126177  0.67968200  0.08522610     0.00300
H88         H  0.07121584  0.67327401  0.12636830     0.08000
H89         H  0.02483080  0.67786413  0.06882371     0.07100
N90         N  0.98635146  0.68752888  0.17680840    -0.36800
N91         N  0.95932318  0.68536560  0.17688742    -0.29000
C92         C  0.95044522  0.68356905  0.19707700    -0.04200
C93         C  0.97291079  0.68429556  0.21039340     0.04400
C94         C  0.99530392  0.68735251  0.19700119     0.02500
H95         H  0.92915556  0.68183087  0.20169379     0.07600
H96         H  0.01659519  0.68851623  0.20159647     0.06500
N97         N  0.53486901  0.19684132  0.38734781    -0.27900
N98         N  0.52139980  0.20458975  0.40524207    -0.35800
C99         C  0.53938367  0.20807103  0.42125154     0.00400
C100        C  0.56547008  0.20229308  0.41314202     0.06400
C101        C  0.56182923  0.19476292  0.39161393    -0.06700
H102        H  0.53377268  0.21224944  0.43775996     0.07100
H103        H  0.57757953  0.18737318  0.37999103     0.08300
Cu104      Cu  0.47913782  0.20498275  0.40804551     0.44200
Cu105      Cu  0.51587127  0.18735308  0.35812220     0.42000
Cu106      Cu  0.44182352  0.18561472  0.35984994     0.43900
N107        N  0.43739746  0.19265522  0.40738922    -0.35300
N108        N  0.42378812  0.18548231  0.38960625    -0.29600
C109        C  0.39758711  0.17607296  0.39431376    -0.05700
C110        C  0.39454388  0.17680348  0.41614049     0.06500
C111        C  0.42018898  0.18788989  0.42393158     0.00300
H112        H  0.38210153  0.16765428  0.38272307     0.08000
H113        H  0.42609437  0.19112685  0.44040608     0.07100
N114        N  0.46427135  0.18196637  0.33198825    -0.36800
N115        N  0.49128528  0.18205495  0.33128417    -0.29000
C116        C  0.49932365  0.17965474  0.31087680    -0.04200
C117        C  0.47628431  0.17760671  0.29809452     0.04400
C118        C  0.45443442  0.17967398  0.31210105     0.02500
H119        H  0.52042701  0.17978605  0.30569674     0.07600
H120        H  0.43291076  0.18026431  0.30819225     0.06500
N121        N  0.42058228  0.16490213  0.11546478    -0.27900
N122        N  0.43477268  0.16305046  0.09761134    -0.35800
C123        C  0.41749917  0.15865017  0.08119840     0.00400
C124        C  0.39110739  0.15720024  0.08905493     0.06400
C125        C  0.39381036  0.16164225  0.11085523    -0.06700
H126        H  0.42374485  0.15598632  0.06476391     0.07100
H127        H  0.37755915  0.16253074  0.12252842     0.08300
Cu128      Cu  0.47693226  0.16527889  0.09616018     0.44200
Cu129      Cu  0.43857654  0.17148198  0.14514361     0.42000
Cu130      Cu  0.51346525  0.17154072  0.14543176     0.43900
N131        N  0.51907155  0.16261293  0.09812747    -0.35300
N132        N  0.53277739  0.16507894  0.11614523    -0.29600
C133        C  0.55972621  0.16128645  0.11192413    -0.05700
C134        C  0.56298295  0.15626068  0.09018833     0.06500
C135        C  0.53677535  0.15692149  0.08201731     0.00300
H136        H  0.57567067  0.16120430  0.12380372     0.08000
H137        H  0.53097657  0.15316278  0.06554156     0.07100
N138        N  0.48920345  0.17663993  0.17249102    -0.36800
N139        N  0.46215287  0.17679719  0.17243559    -0.29000
C140        C  0.45310468  0.17999862  0.19257228    -0.04200
C141        C  0.47548942  0.18240020  0.20598360     0.04400
C142        C  0.49800764  0.17958587  0.19264475     0.02500
H143        H  0.43175986  0.18039389  0.19712310     0.07600
H144        H  0.51931499  0.17898834  0.19721258     0.06500
C145        C  0.79338039  0.62970757  0.04205686     0.79600
N146        N  0.77712177  0.66468951  0.03473550    -0.78700
C147        C  0.75681069  0.65562286  0.02064747     0.82000
N148        N  0.75336145  0.61150264  0.01337457    -0.78700
C149        C  0.77001271  0.57652554  0.02015397     0.82100
N150        N  0.78982821  0.58598046  0.03452773    -0.80400
C151        C  0.65601358  0.83883913  0.96729430     0.79600
N152        N  0.67167548  0.80196404  0.97355317    -0.78700
C153        C  0.69413817  0.80875854  0.98588402     0.82000
N154        N  0.70052250  0.85253114  0.99222245    -0.78700
C155        C  0.68538902  0.88950280  0.98565895     0.82100
N156        N  0.66313883  0.88245397  0.97330116    -0.80400
C157        C  0.65901160  0.12365217  0.03824318     0.79600
N158        N  0.66703975  0.08030366  0.03227983    -0.78700
C159        C  0.68783389  0.07416184  0.01829363     0.82000
N160        N  0.70082416  0.11174734  0.01019264    -0.78700
C161        C  0.69341007  0.15539240  0.01628977     0.82100
N162        N  0.67255756  0.16117522  0.03041162    -0.80400
C163        C  0.79634648  0.33528413  0.96639382     0.79600
N164        N  0.77980866  0.30071805  0.97346035    -0.78700
C165        C  0.75972124  0.30969928  0.98787976     0.82000
N166        N  0.75623275  0.35385254  0.99518073    -0.78700
C167        C  0.77271785  0.38856037  0.98828557     0.82100
N168        N  0.79279778  0.37917187  0.97399734    -0.80400
N169        N  0.91845686  0.27774054  0.88713713    -0.27900
N170        N  0.93227131  0.27084298  0.90489286    -0.35800
C171        C  0.91550386  0.27729094  0.92154537     0.00400
C172        C  0.88988527  0.28927582  0.91398049     0.06400
C173        C  0.89238732  0.28874345  0.89207492    -0.06700
H174        H  0.92178835  0.27506453  0.93797726     0.07100
H175        H  0.87672675  0.29756125  0.88062244     0.08300
Cu176      Cu  0.97388269  0.25832973  0.90612889     0.44200
Cu177      Cu  0.93664276  0.27541317  0.85727942     0.42000
Cu178      Cu  0.01151889  0.27268904  0.85756248     0.43900
N179        N  0.01590988  0.26457508  0.90497233    -0.35300
N180        N  0.02989462  0.27047992  0.88722677    -0.29600
C181        C  0.05632800  0.27757015  0.89210104    -0.05700
C182        C  0.05908686  0.27581669  0.91399024     0.06500
C183        C  0.03296434  0.26780527  0.92157353     0.00300
H184        H  0.07210185  0.28547505  0.88061401     0.08000
H185        H  0.02660687  0.26623858  0.93801909     0.07100
N186        N  0.98789232  0.27716527  0.83027283    -0.36800
N187        N  0.96082690  0.27749117  0.83009362    -0.29000
C188        C  0.95217974  0.28146144  0.80990023    -0.04200
C189        C  0.97486021  0.28371848  0.79677442     0.04400
C190        C  0.99711742  0.28130608  0.81024396     0.02500
H191        H  0.93095131  0.28385627  0.80518081     0.07600
H192        H  0.01848097  0.28285573  0.80582116     0.06500
N193        N  0.03457729  0.32683076  0.61753447    -0.27900
N194        N  0.02176534  0.32309944  0.59914668    -0.35800
C195        C  0.04048771  0.32007233  0.58350474     0.00400
C196        C  0.06627453  0.32202730  0.59251160     0.06400
C197        C  0.06172119  0.32674726  0.61406499    -0.06700
H198        H  0.03568680  0.31784530  0.56677913     0.07100
H199        H  0.07703454  0.32985646  0.62634319     0.08300
Cu200      Cu  0.97941493  0.32532727  0.59616336     0.44200
Cu201      Cu  0.01485215  0.33183897  0.64664782     0.42000
Cu202      Cu  0.94147083  0.33825483  0.64561424     0.43900
N203        N  0.93740927  0.33671964  0.59785070    -0.35300
N204        N  0.92378185  0.34220991  0.61583780    -0.29600
C205        C  0.89723163  0.34989928  0.61146527    -0.05700
C206        C  0.89393930  0.34944879  0.58966731     0.06500
C207        C  0.91979845  0.34057591  0.58155794     0.00300
H208        H  0.88145914  0.35490317  0.62333119     0.08000
H209        H  0.92544049  0.33760351  0.56499968     0.07100
N210        N  0.96376870  0.33194716  0.67337596    -0.36800
N211        N  0.99078060  0.33044696  0.67380246    -0.29000
C212        C  0.99908086  0.32570544  0.69403693    -0.04200
C213        C  0.97616447  0.32412592  0.70693746     0.04400
C214        C  0.95413106  0.32776048  0.69329036     0.02500
H215        H  0.02020018  0.32235517  0.69893499     0.07600
H216        H  0.93268165  0.32713146  0.69750961     0.06500
C217        C  0.15058938  0.63402926  0.03893727     0.79600
N218        N  0.16662923  0.66950509  0.03232201    -0.78700
C219        C  0.18536359  0.66326115  0.01663642     0.82000
N220        N  0.18813956  0.62059160  0.00741666    -0.78700
C221        C  0.17179014  0.58488663  0.01360671     0.82100
N222        N  0.15317744  0.59189263  0.02933802    -0.80400
C223        C  0.28686819  0.84990033  0.96854881     0.79600
N224        N  0.28101389  0.89316849  0.97596402    -0.78700
C225        C  0.26099511  0.89955210  0.99063299     0.82000
N226        N  0.24702805  0.86230331  0.99817915    -0.78700
C227        C  0.25271949  0.81872670  0.99084080     0.82100
N228        N  0.27263494  0.81289516  0.97601108    -0.80400
C229        C  0.29382904  0.13858182  0.03815145     0.79600
N230        N  0.28640552  0.09448863  0.03339425    -0.78700
C231        C  0.26389154  0.08620302  0.02157164     0.82000
N232        N  0.24879848  0.12270663  0.01427889    -0.78700
C233        C  0.25552426  0.16721670  0.01940011     0.82100
N234        N  0.27837376  0.17502920  0.03116875    -0.80400
C235        C  0.15221004  0.33647414  0.96287693     0.79600
N236        N  0.15513760  0.38217743  0.96762821    -0.78700
C237        C  0.17601911  0.39695233  0.98010879     0.82000
N238        N  0.19394468  0.36483568  0.98823448    -0.78700
C239        C  0.19133152  0.31873691  0.98329272     0.82100
N240        N  0.17036850  0.30512085  0.97066443    -0.80400
N241        N  0.52662591  0.81717518  0.89191892    -0.27900
N242        N  0.51307573  0.81772313  0.91009576    -0.35800
C243        C  0.53098236  0.82087185  0.92618994     0.00400
C244        C  0.55704309  0.82300543  0.91774144     0.06400
C245        C  0.55357141  0.82049213  0.89597032    -0.06700
H246        H  0.52541379  0.82240786  0.94279618     0.07100
H247        H  0.56944242  0.82089391  0.88398001     0.08300
Cu248      Cu  0.47082183  0.81625495  0.91220080     0.44200
Cu249      Cu  0.50747172  0.81203646  0.86258769     0.42000
Cu250      Cu  0.43329973  0.82180284  0.86265107     0.43900
N251        N  0.42862792  0.82134185  0.91033822    -0.35300
N252        N  0.41493205  0.82424122  0.89229942    -0.29600
C253        C  0.38807097  0.82804434  0.89663361    -0.05700
C254        C  0.38472347  0.82683856  0.91842081     0.06500
C255        C  0.41085765  0.82296257  0.92661526     0.00300
H256        H  0.37213331  0.83078115  0.88479672     0.08000
H257        H  0.41657682  0.82169243  0.94319093     0.07100
N258        N  0.45662438  0.81431661  0.83534419    -0.36800
N259        N  0.48356446  0.80989336  0.83535534    -0.29000
C260        C  0.49235034  0.80543290  0.81521488    -0.04200
C261        C  0.46988063  0.80704813  0.80189391     0.04400
C262        C  0.44759972  0.81314448  0.81519247     0.02500
H263        H  0.51359326  0.80221567  0.81059178     0.07600
H264        H  0.42637529  0.81641246  0.81056253     0.06500
N265        N  0.41128317  0.80280958  0.62156906    -0.27900
N266        N  0.42398536  0.79239816  0.60365978    -0.35800
C267        C  0.40573880  0.79125842  0.58779958     0.00400
C268        C  0.38024604  0.80134413  0.59612670     0.06400
C269        C  0.38448533  0.80899757  0.61754877    -0.06700
H270        H  0.41080007  0.78494984  0.57132293     0.07100
H271        H  0.36927890  0.81850910  0.62929181     0.08300
Cu272      Cu  0.46567463  0.78399429  0.60125218     0.44200
Cu273      Cu  0.43171180  0.80851243  0.65021464     0.42000
Cu274      Cu  0.50627128  0.79401192  0.64886040     0.43900
N275        N  0.50761127  0.78893775  0.60113873    -0.35300
N276        N  0.52278137  0.79256177  0.61838783    -0.29600
C277        C  0.54901741  0.79837709  0.61249582    -0.05700
C278        C  0.55025882  0.79830608  0.59050204     0.06500
C279        C  0.52359275  0.79256905  0.58390041     0.00300
H280        H  0.56572268  0.80430757  0.62337677     0.08000
H281        H  0.51618207  0.79251903  0.56772659     0.07100
N282        N  0.48341012  0.80266057  0.67651869    -0.36800
N283        N  0.45656020  0.80871863  0.67682901    -0.29000
C284        C  0.44819452  0.81373470  0.69702885    -0.04200
C285        C  0.47080809  0.81099094  0.71012588     0.04400
C286        C  0.49275829  0.80344782  0.69660251     0.02500
H287        H  0.42709186  0.81825406  0.70182698     0.07600
H288        H  0.51398714  0.79907779  0.70103704     0.06500
C289        C  0.46985780  0.80656316  0.77841624    -0.06800
C290        C  0.45501259  0.84125823  0.76765743    -0.17900
C291        C  0.45576916  0.84471366  0.74549987     0.10400
C292        C  0.47110423  0.81190231  0.73361007    -0.06700
C293        C  0.48597844  0.77726148  0.74438176    -0.17900
C294        C  0.48523215  0.77384197  0.76653953     0.10500
S295        S  0.43807286  0.89339951  0.73355876    -0.32900
S296        S  0.50294813  0.72526231  0.77853049    -0.32900
H297        H  0.48367863  0.71844856  0.79482425     0.28500
H298        H  0.45723708  0.90002040  0.71717403     0.28500
H299        H  0.44350552  0.86695540  0.77663420     0.19100
H300        H  0.49744795  0.75149706  0.73541880     0.19100
C301        C  0.20855820  0.28193923  0.99338394    -0.06800
C302        C  0.19562778  0.24024712  0.99922165    -0.17900
C303        C  0.21004546  0.20326259  0.00844227     0.10400
C304        C  0.23857808  0.20692493  0.01167170    -0.06700
C305        C  0.25146259  0.24904590  0.00644296    -0.17900
C306        C  0.23694362  0.28612335  0.99714148     0.10500
S307        S  0.19031921  0.15341960  0.01651259    -0.32900
S308        S  0.25642507  0.33580287  0.98894364    -0.32900
H309        H  0.24225377  0.34183892  0.96972008     0.28500
H310        H  0.20463156  0.14661492  0.03563910     0.28500
H311        H  0.17378702  0.23657858  0.99692743     0.19100
H312        H  0.27332702  0.25241368  0.00868729     0.19100
C313        C  0.31035570  0.84240254  0.95416998    -0.06800
C314        C  0.32849822  0.80571548  0.95878891    -0.17900
C315        C  0.35241610  0.79893529  0.94700828     0.10400
C316        C  0.35878611  0.82999538  0.93034791    -0.06700
C317        C  0.34024737  0.86577685  0.92524238    -0.17900
C318        C  0.31607303  0.87211944  0.93683900     0.10500
S319        S  0.37347893  0.74931039  0.95373993    -0.32900
S320        S  0.29317996  0.91788031  0.92835353    -0.32900
H321        H  0.26912820  0.89383470  0.93359692     0.28500
H322        H  0.38158199  0.73962542  0.93276372     0.28500
H323        H  0.32426307  0.78248559  0.97193093     0.19100
H324        H  0.34478251  0.88931663  0.91226472     0.19100
C325        C  0.25597313  0.94643680  0.99922983    -0.06800
C326        C  0.26123323  0.95431687  0.02077269    -0.17900
C327        C  0.26184138  0.99957920  0.02895549     0.10400
C328        C  0.25753947  0.03798169  0.01520707    -0.06700
C329        C  0.25012065  0.02970360  0.99405348    -0.17900
C330        C  0.24918448  0.98441606  0.98597197     0.10500
S331        S  0.26848656  0.00588313  0.05696213    -0.32900
S332        S  0.23974728  0.97749069  0.95852273    -0.32900
H333        H  0.22940779  0.93214235  0.96062638     0.28500
H334        H  0.25283048  0.04683868  0.05940332     0.28500
H335        H  0.26598742  0.92516587  0.03110609     0.19100
H336        H  0.24631021  0.05875453  0.98344235     0.19100
C337        C  0.17316604  0.53911088  0.00283622    -0.06800
C338        C  0.19860026  0.51713610  0.99987821    -0.17900
C339        C  0.20048440  0.47178450  0.99161910     0.10400
C340        C  0.17637271  0.44680957  0.98684490    -0.06700
C341        C  0.15108036  0.47008405  0.98887430    -0.17900
C342        C  0.14926758  0.51579963  0.99634696     0.10500
S343        S  0.23420716  0.44925326  0.98653104    -0.32900
S344        S  0.11582386  0.54277836  0.99660249    -0.32900
H345        H  0.12511415  0.58794416  0.99198504     0.28500
H346        H  0.22675606  0.42616418  0.96775003     0.28500
H347        H  0.21713676  0.53527917  0.00418437     0.19100
H348        H  0.13231718  0.45248618  0.98475609     0.19100
C349        C  0.20215632  0.70307476  0.00948885    -0.06800
C350        C  0.22989748  0.69551046  0.00482424    -0.17900
C351        C  0.24717906  0.73252566  0.99958327     0.10400
C352        C  0.23640801  0.77839908  0.99821183    -0.06700
C353        C  0.20865832  0.78582234  0.00290600    -0.17900
C354        C  0.19145486  0.74895609  0.00825514     0.10500
S355        S  0.28297448  0.71896499  0.99622226    -0.32900
S356        S  0.15574661  0.76284277  0.01206073    -0.32900
H357        H  0.14614482  0.72262675  0.00182285     0.28500
H358        H  0.29216536  0.75935719  0.00655349     0.28500
H359        H  0.23845240  0.66068962  0.00607477     0.19100
H360        H  0.19995354  0.82053146  0.00164085     0.19100
C361        C  0.97531969  0.29252371  0.77365731    -0.06800
C362        C  0.99132009  0.32929319  0.76599133    -0.17900
C363        C  0.99123948  0.34141345  0.74447224     0.10400
C364        C  0.97535450  0.31550744  0.73005085    -0.06700
C365        C  0.95929820  0.27879169  0.73770545    -0.17900
C366        C  0.95938953  0.26664352  0.75923862     0.10500
S367        S  0.01066130  0.39175905  0.73664945    -0.32900
S368        S  0.94003932  0.21621096  0.76705044    -0.32900
H369        H  0.95833379  0.20152569  0.78295168     0.28500
H370        H  0.99242607  0.40642579  0.72070273     0.28500
H371        H  0.00328783  0.34977564  0.77697948     0.19100
H372        H  0.94735984  0.25831161  0.72669650     0.19100
C373        C  0.08326288  0.28874027  0.92676755    -0.06800
C374        C  0.07932181  0.31877069  0.94409591    -0.17900
C375        C  0.10130193  0.33400250  0.95634289     0.10400
C376        C  0.12819461  0.32023647  0.95086799    -0.06700
C377        C  0.13216108  0.28927442  0.93389544    -0.17900
C378        C  0.11003235  0.27301176  0.92196023     0.10500
S379        S  0.09343198  0.36911049  0.97930564    -0.32900
S380        S  0.11724571  0.23082938  0.90149934    -0.32900
H381        H  0.09291305  0.20569649  0.90427945     0.28500
H382        H  0.11384967  0.34944950  0.99229830     0.28500
H383        H  0.05888991  0.33061475  0.94817256     0.19100
H384        H  0.15266206  0.27751130  0.92996110     0.19100
C385        C  0.81949535  0.32473738  0.95191956    -0.06800
C386        C  0.84470690  0.34613895  0.95581274    -0.17900
C387        C  0.86765769  0.33647554  0.94328010     0.10400
C388        C  0.86575894  0.30376036  0.92660358    -0.06700
C389        C  0.84036647  0.28356884  0.92216811    -0.17900
C390        C  0.81718270  0.29376264  0.93458861     0.10500
S391        S  0.89835748  0.36862880  0.94889324    -0.32900
S392        S  0.78466735  0.26853742  0.92760926    -0.32900
H393        H  0.79366307  0.24469557  0.90937125     0.28500
H394        H  0.90648373  0.37288336  0.92755188     0.28500
H395        H  0.84661555  0.37057321  0.96882044     0.19100
H396        H  0.83887124  0.25915366  0.90914282     0.19100
C397        C  0.74183922  0.27143234  0.99535365    -0.06800
C398        C  0.73539674  0.23560878  0.98108270    -0.17900
C399        C  0.71867843  0.19848862  0.98708156     0.10400
C400        C  0.70840155  0.19621250  0.00806670    -0.06700
C401        C  0.71415961  0.23258324  0.02214484    -0.17900
C402        C  0.73094442  0.26956920  0.01618259     0.10500
S403        S  0.71042129  0.15640265  0.96689768    -0.32900
S404        S  0.73958466  0.31055151  0.03659997    -0.32900
H405        H  0.76771876  0.30747379  0.03208481     0.28500
H406        H  0.68347456  0.14925740  0.97399297     0.28500
H407        H  0.74305176  0.23687824  0.96494507     0.19100
H408        H  0.70668926  0.23100015  0.03833626     0.19100
C409        C  0.63113456  0.83248893  0.95424560    -0.06800
C410        C  0.62549860  0.86544154  0.93828846    -0.17900
C411        C  0.60157425  0.86333508  0.92617970     0.10400
C412        C  0.58284669  0.82694181  0.92973275    -0.06700
C413        C  0.58847703  0.79381414  0.94553527    -0.17900
C414        C  0.61219753  0.79629787  0.95789474     0.10500
S415        S  0.59557089  0.90943451  0.90725786    -0.32900
S416        S  0.61612556  0.75380322  0.97875851    -0.32900
H417        H  0.62536636  0.78592182  0.99394319     0.28500
H418        H  0.56713120  0.91187893  0.91045879     0.28500
H419        H  0.63966165  0.89365046  0.93544979     0.19100
H420        H  0.57402525  0.76608460  0.94848674     0.19100
C421        C  0.69171973  0.93674629  0.99314589    -0.06800
C422        C  0.69599638  0.94364596  0.01493336    -0.17900
C423        C  0.69701208  0.98855269  0.02344820     0.10400
C424        C  0.69352821  0.02734605  0.00993758    -0.06700
C425        C  0.69157142  0.02049467  0.98796739    -0.17900
C426        C  0.69082597  0.97564475  0.97942157     0.10500
S427        S  0.70212811  0.99421161  0.05166739    -0.32900
S428        S  0.68827368  0.97033324  0.95097110    -0.32900
H429        H  0.70254214  0.92770048  0.94967379     0.28500
H430        H  0.71456202  0.03820181  0.05071890     0.28500
H431        H  0.69725230  0.91394612  0.02552878     0.19100
H432        H  0.68925582  0.05019864  0.97747489     0.19100
C433        C  0.76771246  0.52847111  0.01180595    -0.06800
C434        C  0.77529110  0.49168422  0.02536161    -0.17900
C435        C  0.77663264  0.44571567  0.01811981     0.10400
C436        C  0.76973529  0.43582813  0.99694015    -0.06700
C437        C  0.76126874  0.47197792  0.98347838    -0.17900
C438        C  0.76034707  0.51817826  0.99057578     0.10500
S439        S  0.78952910  0.40075500  0.03552788    -0.32900
S440        S  0.75155135  0.56212157  0.97128278    -0.32900
H441        H  0.77385146  0.59077433  0.97629191     0.28500
H442        H  0.78781469  0.42663386  0.05443755     0.28500
H443        H  0.78107232  0.49917663  0.04157766     0.19100
H444        H  0.75616858  0.46430009  0.96712102     0.19100
C445        C  0.71070200  0.76875659  0.99341498    -0.06800
C446        C  0.69725325  0.72799631  0.99977501    -0.17900
C447        C  0.71157100  0.69100097  0.00918986     0.10400
C448        C  0.74015858  0.69422031  0.01199608    -0.06700
C449        C  0.75364161  0.73467944  0.00541230    -0.17900
C450        C  0.73941072  0.77148601  0.99587738     0.10500
S451        S  0.69195305  0.64200740  0.01838879    -0.32900
S452        S  0.75938646  0.81970852  0.98625100    -0.32900
H453        H  0.74321299  0.82770929  0.96813972     0.28500
H454        H  0.70805446  0.63345653  0.03648226     0.28500
H455        H  0.67523359  0.72566614  0.99822295     0.19100
H456        H  0.77565692  0.73703021  0.00706574     0.19100
C457        C  0.36577836  0.15246154  0.07645921    -0.06800
C458        C  0.36343167  0.17780031  0.05743408    -0.17900
C459        C  0.34019111  0.17431775  0.04460887     0.10400
C460        C  0.31838631  0.14574894  0.05116297    -0.06700
C461        C  0.32071824  0.12036499  0.07010205    -0.17900
C462        C  0.34419648  0.12282576  0.08262974     0.10500
S463        S  0.34026301  0.20516352  0.01965790    -0.32900
S464        S  0.34589430  0.08478048  0.10536772    -0.32900
H465        H  0.37365325  0.07309589  0.10259924     0.28500
H466        H  0.32630638  0.17072449  0.00819422     0.28500
H467        H  0.38000191  0.20011190  0.05236819     0.19100
H468        H  0.30429148  0.09747970  0.07493674     0.19100
C469        C  0.58840413  0.14763953  0.07803877    -0.06800
C470        C  0.58887672  0.10998081  0.06391840    -0.17900
C471        C  0.61155002  0.10092317  0.05100830     0.10400
C472        C  0.63475116  0.13017953  0.05215477    -0.06700
C473        C  0.63444755  0.16739705  0.06664471    -0.17900
C474        C  0.61162104  0.17643190  0.07954071     0.10500
S475        S  0.60863299  0.05281507  0.03278714    -0.32900
S476        S  0.61307787  0.22619784  0.09689954    -0.32900
H477        H  0.58557276  0.23947908  0.09420110     0.28500
H478        H  0.61856767  0.07796359  0.01524767     0.28500
H479        H  0.57116234  0.08766181  0.06270801     0.19100
H480        H  0.65203931  0.18999190  0.06778870     0.19100
C481        C  0.47554136  0.17786740  0.27451536    -0.06800
C482        C  0.49472141  0.20520379  0.26365326    -0.17900
C483        C  0.49457180  0.20887088  0.24150386     0.10400
C484        C  0.47523962  0.18355462  0.22955661    -0.06700
C485        C  0.45580759  0.15667226  0.24040663    -0.17900
C486        C  0.45593679  0.15303040  0.26258787     0.10500
S487        S  0.51854384  0.24876990  0.22975353    -0.32900
S488        S  0.43176268  0.11351431  0.27435651    -0.32900
H489        H  0.44989231  0.09670698  0.28993804     0.28500
H490        H  0.50059083  0.26442257  0.21380480     0.28500
H491        H  0.50948800  0.22524516  0.27254150     0.19100
H492        H  0.44105669  0.13665226  0.23149132     0.19100
C493        C  0.08209291  0.66053771  0.08060247    -0.06800
C494        C  0.10577771  0.68737824  0.08258589    -0.17900
C495        C  0.12895425  0.67842766  0.07004340     0.10400
C496        C  0.12835208  0.64227075  0.05469357    -0.06700
C497        C  0.10489039  0.61440069  0.05345230    -0.17900
C498        C  0.08208922  0.62268043  0.06632097     0.10500
S499        S  0.15861817  0.71372031  0.07493859    -0.32900
S500        S  0.05391550  0.58282108  0.06404533    -0.32900
H501        H  0.04678458  0.58417786  0.08567636     0.28500
H502        H  0.17735174  0.67658134  0.07280757     0.28500
H503        H  0.10612275  0.71587542  0.09384933     0.19100
H504        H  0.10400865  0.58609712  0.04213085     0.19100
C505        C  0.86274738  0.65724493  0.08194190    -0.06800
C506        C  0.83815886  0.68151533  0.08544243    -0.17900
C507        C  0.81487794  0.67247735  0.07320223     0.10400
C508        C  0.81632152  0.63907550  0.05672116    -0.06700
C509        C  0.84070241  0.61370015  0.05385030    -0.17900
C510        C  0.86364540  0.62183803  0.06640849     0.10500
S511        S  0.78388952  0.70349082  0.07992348    -0.32900
S512        S  0.89304547  0.58462396  0.06225927    -0.32900
H513        H  0.90073159  0.58294030  0.08375585     0.28500
H514        H  0.76651142  0.66554954  0.07614011     0.28500
H515        H  0.83715023  0.70797429  0.09768526     0.19100
H516        H  0.84202147  0.58728460  0.04160299     0.19100
C517        C  0.97252778  0.68626639  0.27878854    -0.06800
C518        C  0.95616212  0.65440867  0.26779650    -0.17900
C519        C  0.95654732  0.65187707  0.24562603     0.10400
C520        C  0.97307098  0.68288294  0.23389001    -0.06700
C521        C  0.98958620  0.71455203  0.24484787    -0.17900
C522        C  0.98926796  0.71700386  0.26705319     0.10500
S523        S  0.93683894  0.60629704  0.23347407    -0.32900
S524        S  0.00937098  0.76204832  0.27921097    -0.32900
H525        H  0.99019755  0.77233060  0.29523178     0.28500
H526        H  0.95592797  0.59686594  0.21728313     0.28500
H527        H  0.94361913  0.63009247  0.27658679     0.19100
H528        H  0.00213010  0.73877833  0.23600417     0.19100
C529        C  0.09292140  0.32357311  0.58141115    -0.06800
C530        C  0.11062963  0.36053409  0.58584909    -0.17900
C531        C  0.13507189  0.36623389  0.57455566     0.10400
C532        C  0.14210515  0.33430123  0.55830405    -0.06700
C533        C  0.12504031  0.29601775  0.55465836    -0.17900
C534        C  0.10064782  0.29029836  0.56599282     0.10500
S535        S  0.15627536  0.41489737  0.58171226    -0.32900
S536        S  0.08037813  0.23981466  0.55999471    -0.32900
H537        H  0.07016132  0.23389320  0.58069047     0.28500
H538        H  0.18122951  0.39264348  0.57686878     0.28500
H539        H  0.10504938  0.38587426  0.59786480     0.19100
H540        H  0.13022084  0.27115987  0.54233580     0.19100
C541        C  0.36951845  0.16460160  0.42814690    -0.06800
C542        C  0.34433998  0.18308422  0.42134361    -0.17900
C543        C  0.31987010  0.17221697  0.43178728     0.10400
C544        C  0.32047161  0.14303060  0.44985433    -0.06700
C545        C  0.34559117  0.12400096  0.45643419    -0.17900
C546        C  0.36991949  0.13380943  0.44567751     0.10500
S547        S  0.28859610  0.19475510  0.42059666    -0.32900
S548        S  0.40032899  0.10371302  0.45447264    -0.32900
H549        H  0.41046401  0.09530066  0.43391104     0.28500
H550        H  0.27257551  0.15610471  0.42614759     0.28500
H551        H  0.34368472  0.20588093  0.40762666     0.19100
H552        H  0.34629611  0.10106117  0.47010236     0.19100
C553        C  0.24182202  0.19672989  0.49230017    -0.06800
C554        C  0.23967270  0.20018544  0.51447370    -0.17900
C555        C  0.22652269  0.23819424  0.52409683     0.10400
C556        C  0.21463896  0.27340745  0.51132135    -0.06700
C557        C  0.21655621  0.26964541  0.48914556    -0.17900
C558        C  0.22961340  0.23154824  0.47953956     0.10500
S559        S  0.22703301  0.24086473  0.55268652    -0.32900
S560        S  0.22861253  0.22824462  0.45099792    -0.32900
H561        H  0.22806709  0.17932914  0.44997286     0.28500
H562        H  0.22960194  0.28956496  0.55380801     0.28500
H563        H  0.24924947  0.17397980  0.52442116     0.19100
H564        H  0.20701177  0.29585928  0.47917750     0.19100
C565        C  0.12576383  0.64310365  0.45743348    -0.06800
C566        C  0.12637827  0.67714477  0.44141420    -0.17900
C567        C  0.10290641  0.68890719  0.42987115     0.10400
C568        C  0.07827224  0.66486430  0.43374591    -0.06700
C569        C  0.07750992  0.63162240  0.45011110    -0.17900
C570        C  0.10068735  0.62122803  0.46223206     0.10500
S571        S  0.10550734  0.73666663  0.41140357    -0.32900
S572        S  0.09637197  0.58178235  0.48425989    -0.32900
H573        H  0.11319416  0.60694350  0.49818601     0.28500
H574        H  0.07907576  0.75427696  0.41538946     0.28500
H575        H  0.14527185  0.69520815  0.43800214     0.19100
H576        H  0.05864612  0.61354859  0.45358030     0.19100
C577        C  0.18565423  0.53280134  0.49535789    -0.06800
C578        C  0.18708081  0.49522613  0.48119711    -0.17900
C579        C  0.18990148  0.44939547  0.48857757     0.10400
C580        C  0.19015416  0.44056102  0.51066961    -0.06700
C581        C  0.18940177  0.47840165  0.52476904    -0.17900
C582        C  0.18747353  0.52437466  0.51737314     0.10500
S583        S  0.19078938  0.40359774  0.46912562    -0.32900
S584        S  0.18503476  0.57162448  0.53623538    -0.32900
H585        H  0.18996726  0.54488082  0.55457038     0.28500
H586        H  0.21694297  0.38815426  0.47536886     0.28500
H587        H  0.18575312  0.50163088  0.46427139     0.19100
H588        H  0.18950879  0.47171267  0.54168845     0.19100
C589        C  0.31009312  0.82808977  0.55721369    -0.06800
C590        C  0.32383295  0.78505998  0.55588235    -0.17900
C591        C  0.34585054  0.77445563  0.56915524     0.10400
C592        C  0.35475494  0.80773618  0.58403078    -0.06700
C593        C  0.34027031  0.84978318  0.58616671    -0.17900
C594        C  0.31794420  0.86019151  0.57308368     0.10500
S595        S  0.36160442  0.71779623  0.56635337    -0.32900
S596        S  0.30029304  0.91459796  0.57770679    -0.32900
H597        H  0.27414245  0.89709052  0.57319415     0.28500
H598        H  0.36906653  0.71322283  0.58780905     0.28500
H599        H  0.31785082  0.75978859  0.54403010     0.19100
H600        H  0.34682058  0.87523229  0.59775540     0.19100
C601        C  0.26885519  0.03132354  0.49252275    -0.06800
C602        C  0.27046638  0.99348011  0.47844917    -0.17900
C603        C  0.26986593  0.94744766  0.48583012     0.10400
C604        C  0.26734464  0.93876624  0.50782789    -0.06700
C605        C  0.26517767  0.97652990  0.52183926    -0.17900
C606        C  0.26605898  0.02249356  0.51450770     0.10500
S607        S  0.27392240  0.90162171  0.46650491    -0.32900
S608        S  0.26529290  0.06795673  0.53420988    -0.32900
H609        H  0.28570885  0.09493035  0.52449292     0.28500
H610        H  0.29092363  0.87345730  0.47922270     0.28500
H611        H  0.27277408  0.99984076  0.46158093     0.19100
H612        H  0.26345832  0.97013516  0.53874945     0.19100
C613        C  0.23843703  0.77461392  0.50905932    -0.06800
C614        C  0.25176560  0.73344753  0.50275105    -0.17900
C615        C  0.23717002  0.69615827  0.49423085     0.10400
C616        C  0.20839089  0.69933094  0.49257224    -0.06700
C617        C  0.19515349  0.74079717  0.49871367    -0.17900
C618        C  0.20977186  0.77812411  0.50711919     0.10500
S619        S  0.25661676  0.64672136  0.48482309    -0.32900
S620        S  0.19048269  0.82798756  0.51626466    -0.32900
H621        H  0.20733977  0.83732954  0.53380077     0.28500
H622        H  0.23962113  0.63799245  0.46729150     0.28500
H623        H  0.27383220  0.73079937  0.50396340     0.19100
H624        H  0.17307327  0.74352923  0.49777005     0.19100
C625        C  0.80943496  0.66164802  0.45555310    -0.06800
C626        C  0.81126109  0.63264131  0.43769373    -0.17900
C627        C  0.83420060  0.63332130  0.42442148     0.10400
C628        C  0.85577502  0.66429095  0.42886691    -0.06700
C629        C  0.85340511  0.69457401  0.44627370    -0.17900
C630        C  0.83067830  0.69337596  0.45972683     0.10500
S631        S  0.83539237  0.59147276  0.40314971    -0.32900
S632        S  0.83101207  0.73095724  0.48264060    -0.32900
H633        H  0.82092341  0.69729880  0.49682051     0.28500
H634        H  0.86307188  0.57960003  0.40612310     0.28500
H635        H  0.79506748  0.60805183  0.43447895     0.19100
H636        H  0.86981043  0.71853178  0.44979616     0.19100
C637        C  0.61817250  0.84050376  0.55181466    -0.06800
C638        C  0.62194419  0.80639459  0.56755822    -0.17900
C639        C  0.60007253  0.79077361  0.57992866     0.10400
C640        C  0.57381609  0.81034416  0.57690461    -0.06700
C641        C  0.56985126  0.84333436  0.56070844    -0.17900
C642        C  0.59163975  0.85836100  0.54801428     0.10500
S643        S  0.60678304  0.74437451  0.59854452    -0.32900
S644        S  0.58491151  0.89807023  0.52631292    -0.32900
H645        H  0.55688546  0.90497609  0.53036757     0.28500
H646        H  0.58118166  0.72295637  0.59621897     0.28500
H647        H  0.64210849  0.79157603  0.57018462     0.19100
H648        H  0.54960153  0.85771734  0.55814758     0.19100
C649        C  0.73580002  0.72481791  0.50050549    -0.06800
C650        C  0.72756958  0.75910249  0.48587360    -0.17900
C651        C  0.71023947  0.79578191  0.49187845     0.10400
C652        C  0.70145820  0.79924733  0.51318060    -0.06700
C653        C  0.71024184  0.76565152  0.52791958    -0.17900
C654        C  0.72751825  0.72895459  0.52192185     0.10500
S655        S  0.69848483  0.83471224  0.47130237    -0.32900
S656        S  0.73900387  0.68981009  0.54251545    -0.32900
H657        H  0.76533377  0.68306660  0.53396632     0.28500
H658        H  0.67150868  0.83816913  0.47896928     0.28500
H659        H  0.73363788  0.75610766  0.46937384     0.19100
H660        H  0.70381451  0.76833036  0.54435475     0.19100
C661        C  0.81954695  0.36061942  0.55342959    -0.06800
C662        C  0.82439055  0.39174384  0.57017176    -0.17900
C663        C  0.84857479  0.38963355  0.58199786     0.10400
C664        C  0.86824066  0.35464458  0.57749953    -0.06700
C665        C  0.86338797  0.32352529  0.56080021    -0.17900
C666        C  0.83961362  0.32653393  0.54855424     0.10500
S667        S  0.85374445  0.43446708  0.60156622    -0.32900
S668        S  0.83715140  0.28787847  0.52612859    -0.32900
H669        H  0.82711879  0.32222860  0.51215988     0.28500
H670        H  0.88190032  0.43921092  0.59758023     0.28500
H671        H  0.80944630  0.41867349  0.57378385     0.19100
H672        H  0.87847578  0.29694262  0.55703691     0.19100
C673        C  0.75719305  0.46433217  0.51518209    -0.06800
C674        C  0.75610552  0.47212578  0.49323176    -0.17900
C675        C  0.75513303  0.51731185  0.48496038     0.10400
C676        C  0.75534553  0.55587059  0.49890845    -0.06700
C677        C  0.75439456  0.54799086  0.52088399    -0.17900
C678        C  0.75529106  0.50269364  0.52914919     0.10500
S679        S  0.75431514  0.52335798  0.45645958    -0.32900
S680        S  0.75458072  0.49612639  0.55761333    -0.32900
H681        H  0.74216639  0.45208332  0.55760196     0.28500
H682        H  0.73935054  0.56538255  0.45637106     0.28500
H683        H  0.75736313  0.44290505  0.48239768     0.19100
H684        H  0.75431460  0.57728950  0.53171418     0.19100
C685        C  0.63490178  0.17345140  0.45272599    -0.06800
C686        C  0.61997839  0.21490746  0.45556667    -0.17900
C687        C  0.59810709  0.22650445  0.44221719     0.10400
C688        C  0.59081282  0.19596100  0.42561222    -0.06700
C689        C  0.60665212  0.15575683  0.42210766    -0.17900
C690        C  0.62856061  0.14422517  0.43541183     0.10500
S691        S  0.58037319  0.28066355  0.44724343    -0.32900
S692        S  0.64750935  0.09171469  0.42946077    -0.36900
H693        H  0.67289034  0.10856056  0.43644358     0.28500
H694        H  0.57326975  0.28912573  0.42595769     0.28500
H695        H  0.62486187  0.23779540  0.46867338     0.19100
H696        H  0.60134656  0.13224084  0.40934224     0.19100
C697        C  0.67214448  0.05798034  0.50230762    -0.06800
C698        C  0.69641695  0.03256865  0.50554284    -0.17900
C699        C  0.69589311  0.98614129  0.51259628     0.10400
C700        C  0.67045937  0.96397040  0.51612282    -0.06700
C701        C  0.64633008  0.99015728  0.51347557    -0.17900
C702        C  0.64687300  0.03663891  0.50699192     0.10500
S703        S  0.72834744  0.95799383  0.51737809    -0.32900
S704        S  0.61448040  0.06699747  0.50564846    -0.32900
H705        H  0.62474882  0.10994694  0.51268007     0.28500
H706        H  0.71973302  0.93531608  0.53601137     0.28500
H707        H  0.71593036  0.04880096  0.50231488     0.19100
H708        H  0.62665348  0.97429894  0.51639510     0.19100
C709        C  0.74343382  0.29453132  0.51206459    -0.06800
C710        C  0.74001054  0.25558532  0.52530496    -0.17900
C711        C  0.72436767  0.21723780  0.51898184     0.10400
C712        C  0.71137894  0.21752282  0.49885330    -0.06700
C713        C  0.71583941  0.25591051  0.48537532    -0.17900
C714        C  0.73176917  0.29374547  0.49155890     0.10500
S715        S  0.72056415  0.17091991  0.53799472    -0.32900
S716        S  0.73690873  0.33906186  0.47213645    -0.32900
H717        H  0.76447494  0.34644623  0.47745180     0.28500
H718        H  0.73368911  0.13806230  0.52483050     0.28500
H719        H  0.74899757  0.25548968  0.54101714     0.19100
H720        H  0.70688276  0.25663251  0.46966102     0.19100
loop_ 
_geom_bond_atom_site_label_1 
_geom_bond_atom_site_label_2 
_geom_bond_distance 
_geom_bond_site_symmetry_2 
_ccdc_geom_bond_type 
C1            N2   1.354       .  A
C1            N6   1.355       .  A
C1          C685   1.476       .  S
N2            C3   1.356       .  A
C3            N4   1.362       .  A
C3          C697   1.481       .  S
N4            C5   1.363       .  A
C5            N6   1.361       .  A
C5          C712   1.496       .  S
C7            N8   1.357       .  A
C7           N12   1.360       .  A
C7          C661   1.480       .  S
N8            C9   1.356       .  A
C9           N10   1.358       .  A
C9          C673   1.475       .  S
N10          C11   1.361       .  A
C11          N12   1.360       .  A
C11         C709   1.486       .  S
C13          N14   1.354       .  A
C13          N18   1.357       .  A
C13         C637   1.478       .  S
N14          C15   1.355       .  A
C15          N16   1.361       .  A
C15         C652   1.475       .  S
N16          C17   1.361       .  A
C17          N18   1.360       .  A
C17         C700   1.489       .  S
C19          N20   1.354       .  A
C19          N24   1.356       .  A
C19         C625   1.472       .  S
N20          C21   1.355       .  A
C21          N22   1.359       .  A
C21         C676   1.476       .  S
N22          C23   1.362       .  A
C23          N24   1.359       .  A
C23         C649   1.478       .  S
C25          N26   1.357       .  A
C25          N30   1.357       .  A
C25         C589   1.479       .  S
N26          C27   1.358       .  A
C27          N28   1.359       .  A
C27         C604   1.476       .  S
N28          C29   1.360       .  A
C29          N30   1.356       .  A
C29         C613   1.472       .  S
C31          N32   1.356       .  A
C31          N36   1.359       .  A
C31         C565   1.479       .  S
N32          C33   1.357       .  A
C33          N34   1.359       .  A
C33         C616   1.478       .  S
N34          C35   1.358       .  A
C35          N36   1.359       .  A
C35         C577   1.475       .  S
C37          N38   1.358       .  A
C37          N42   1.360       .  A
C37         C544   1.480       .  S
N38          C39   1.357       .  A
C39          N40   1.358       .  A
C39         C601   1.480       .  S
N40          C41   1.359       .  A
C41          N42   1.361       .  A
C41         C553   1.479       .  S
C43          N44   1.360       .  A
C43          N48   1.356       .  A
C43         C532   1.481       .  S
N44          C45   1.361       .  A
C45          N46   1.361       .  A
C45         C556   1.481       .  S
N46          C47   1.358       .  A
C47          N48   1.357       .  A
C47         C580   1.481       .  S
N49          C53   1.347       .  A
N49          N50   1.321       .  A
N49         Cu57   2.075       .  S
N50          C51   1.341       .  A
N50         Cu56   2.061       .  S
C51          C52   1.381       .  A
C51          H54   1.082       .  S
C52         C628   1.477       .  S
C52          C53   1.386       .  A
C53          H55   1.082       .  S
Cu56         N59   2.061   1_655  S
Cu57         N67   2.077       .  S
Cu58         N60   2.077       .  S
Cu58         N66   2.078   1_455  S
N59          C63   1.342       .  A
N59          N60   1.321       .  A
N60          C61   1.345       .  A
C61          C62   1.387       .  A
C61          H64   1.082       .  S
C62         C568   1.481       .  S
C62          C63   1.383       .  A
C63          H65   1.082       .  S
N66          C70   1.346       .  A
N66          N67   1.323       .  A
N67          C68   1.344       .  A
C68          C69   1.384       .  A
C68          H71   1.082       .  S
C69         C517   1.482       .  S
C69          C70   1.386       .  A
C70          H72   1.082   1_655  S
N73          C77   1.347       .  A
N73          N74   1.322       .  A
N73         Cu81   2.074       .  S
N74          C75   1.342       .  A
N74         Cu80   2.066       .  S
C75          C76   1.382       .  A
C75          H78   1.082       .  S
C76         C505   1.476       .  S
C76          C77   1.384       .  A
C77          H79   1.082       .  S
Cu80         N83   2.067   1_655  S
Cu81         N91   2.075       .  S
Cu82         N84   2.083       .  S
Cu82         N90   2.084   1_455  S
N83          C87   1.343       .  A
N83          N84   1.322       .  A
N84          C85   1.348       .  A
C85          C86   1.385       .  A
C85          H88   1.082       .  S
C86         C493   1.478       .  S
C86          C87   1.382       .  A
C87          H89   1.082       .  S
N90          C94   1.346       .  A
N90          N91   1.324       .  A
N91          C92   1.344       .  A
C92          C93   1.384       .  A
C92          H95   1.082       .  S
C93         C520   1.481       .  S
C93          C94   1.385       .  A
C94          H96   1.082   1_655  S
N97         C101   1.347       .  A
N97          N98   1.323       .  A
N97        Cu105   2.083       .  S
N98          C99   1.344       .  A
N98        Cu104   2.074       .  S
C99         C100   1.382       .  A
C99         H102   1.082       .  S
C100        C688   1.479       .  S
C100        C101   1.386       .  A
C101        H103   1.082       .  S
Cu104       N107   2.075       .  S
Cu105       N115   2.083       .  S
Cu106       N108   2.071       .  S
Cu106       N114   2.071       .  S
N107        C111   1.346       .  A
N107        N108   1.321       .  A
N108        C109   1.344       .  A
C109        C110   1.383       .  A
C109        H112   1.082       .  S
C110        C541   1.482       .  S
C110        C111   1.387       .  A
C111        H113   1.082       .  S
N114        C118   1.345       .  A
N114        N115   1.322       .  A
N115        C116   1.346       .  A
C116        C117   1.388       .  A
C116        H119   1.082       .  S
C117        C481   1.486       .  S
C117        C118   1.386       .  A
C118        H120   1.081       .  S
N121        C125   1.345       .  A
N121        N122   1.322       .  A
N121       Cu129   2.077       .  S
N122        C123   1.343       .  A
N122       Cu128   2.065       .  S
C123        C124   1.382       .  A
C123        H126   1.082       .  S
C124        C457   1.479       .  S
C124        C125   1.386       .  A
C125        H127   1.082       .  S
Cu128       N131   2.066       .  S
Cu129       N139   2.078       .  S
Cu130       N132   2.079       .  S
Cu130       N138   2.080       .  S
N131        C135   1.342       .  A
N131        N132   1.322       .  A
N132        C133   1.348       .  A
C133        C134   1.386       .  A
C133        H136   1.082       .  S
C134        C469   1.478       .  S
C134        C135   1.382       .  A
C135        H137   1.082       .  S
N138        C142   1.344       .  A
N138        N139   1.323       .  A
N139        C140   1.346       .  A
C140        C141   1.386       .  A
C140        H143   1.082       .  S
C141        C484   1.486       .  S
C141        C142   1.386       .  A
C142        H144   1.082       .  S
C145        N146   1.357       .  A
C145        N150   1.355       .  A
C145        C508   1.481       .  S
N146        C147   1.360       .  A
C147        N148   1.359       .  A
C147        C448   1.475       .  S
N148        C149   1.357       .  A
C149        N150   1.357       .  A
C149        C433   1.482       .  S
C151        N152   1.361       .  A
C151        N156   1.357       .  A
C151        C409   1.482       .  S
N152        C153   1.362       .  A
C153        N154   1.358       .  A
C153        C445   1.479       .  S
N154        C155   1.354       .  A
C155        N156   1.356       .  A
C155        C421   1.472       .  S
C157        N158   1.356       .  A
C157        N162   1.361       .  A
C157        C472   1.485       .  S
N158        C159   1.355       .  A
C159        N160   1.355       .  A
C159        C424   1.469       .  S
N160        C161   1.358       .  A
C161        N162   1.362       .  A
C161        C400   1.480       .  S
C163        N164   1.359       .  A
C163        N168   1.359       .  A
C163        C385   1.482       .  S
N164        C165   1.360       .  A
C165        N166   1.359       .  A
C165        C397   1.485       .  S
N166        C167   1.357       .  A
C167        N168   1.357       .  A
C167        C436   1.469       .  S
N169        C173   1.347       .  A
N169        N170   1.322       .  A
N169       Cu177   2.080       .  S
N170        C171   1.343       .  A
N170       Cu176   2.065       .  S
C171        C172   1.382       .  A
C171        H174   1.082       .  S
C172        C388   1.479       .  S
C172        C173   1.385       .  A
C173        H175   1.082       .  S
Cu176       N179   2.066   1_655  S
Cu177       N187   2.081       .  S
Cu178       N180   2.076       .  S
Cu178       N186   2.077   1_455  S
N179        C183   1.343       .  A
N179        N180   1.321       .  A
N180        C181   1.346       .  A
C181        C182   1.387       .  A
C181        H184   1.082       .  S
C182        C373   1.481       .  S
C182        C183   1.384       .  A
C183        H185   1.082       .  S
N186        C190   1.345       .  A
N186        N187   1.324       .  A
N187        C188   1.346       .  A
C188        C189   1.384       .  A
C188        H191   1.082       .  S
C189        C361   1.478       .  S
C189        C190   1.383       .  A
C190        H192   1.082   1_655  S
N193        C197   1.345       .  A
N193        N194   1.323       .  A
N193       Cu201   2.076       .  S
N194        C195   1.347       .  A
N194       Cu200   2.080   1_455  S
C195        C196   1.385       .  A
C195        H198   1.082       .  S
C196        C529   1.479       .  S
C196        C197   1.382       .  A
C197        H199   1.082       .  S
Cu200       N203   2.080       .  S
Cu201       N211   2.076   1_455  S
Cu202       N204   2.070       .  S
Cu202       N210   2.070       .  S
N203        C207   1.345       .  A
N203        N204   1.323       .  A
N204        C205   1.344       .  A
C205        C206   1.383       .  A
C205        H208   1.082       .  S
C206        C664   1.480       .  S
C206        C207   1.385       .  A
C207        H209   1.082       .  S
N210        C214   1.345       .  A
N210        N211   1.322       .  A
N211        C212   1.345       .  A
C212        C213   1.384       .  A
C212        H215   1.082   1_655  S
C213        C364   1.477       .  S
C213        C214   1.383       .  A
C214        H216   1.082       .  S
C217        N218   1.355       .  A
C217        N222   1.358       .  A
C217        C496   1.489       .  S
N218        C219   1.358       .  A
C219        N220   1.362       .  A
C219        C349   1.482       .  S
N220        C221   1.361       .  A
C221        N222   1.359       .  A
C221        C337   1.481       .  S
C223        N224   1.356       .  A
C223        N228   1.358       .  A
C223        C313   1.476       .  S
N224        C225   1.357       .  A
C225        N226   1.358       .  A
C225        C325   1.471       .  S
N226        C227   1.361       .  A
C227        N228   1.358       .  A
C227        C352   1.484       .  S
C229        N230   1.354       .  A
C229        N234   1.360       .  A
C229        C460   1.471       .  S
N230        C231   1.353       .  A
C231        N232   1.358       .  A
C231        C328   1.477       .  S
N232        C233   1.361       .  A
C233        N234   1.362       .  A
C233        C304   1.487       .  S
C235        N236   1.355       .  A
C235        N240   1.352       .  A
C235        C376   1.477       .  S
N236        C237   1.360       .  A
C237        N238   1.367       .  A
C237        C340   1.494       .  S
N238        C239   1.367       .  A
C239        N240   1.359       .  A
C239        C301   1.489       .  S
N241        C245   1.347       .  A
N241        N242   1.322       .  A
N241       Cu249   2.079       .  S
N242        C243   1.344       .  A
N242       Cu248   2.071       .  S
C243        C244   1.382       .  A
C243        H246   1.082       .  S
C244        C412   1.477       .  S
C244        C245   1.384       .  A
C245        H247   1.082       .  S
Cu248       N251   2.071       .  S
Cu249       N259   2.079       .  S
Cu250       N252   2.072       .  S
Cu250       N258   2.073       .  S
N251        C255   1.344       .  A
N251        N252   1.322       .  A
N252        C253   1.345       .  A
C253        C254   1.383       .  A
C253        H256   1.082       .  S
C254        C316   1.475       .  S
C254        C255   1.383       .  A
C255        H257   1.082       .  S
N258        C262   1.345       .  A
N258        N259   1.323       .  A
N259        C260   1.345       .  A
C260        C261   1.384       .  A
C260        H263   1.082       .  S
C261        C289   1.479       .  S
C261        C262   1.384       .  A
C262        H264   1.082       .  S
N265        C269   1.346       .  A
N265        N266   1.321       .  A
N265       Cu273   2.072       .  S
N266        C267   1.341       .  A
N266       Cu272   2.057       .  S
C267        C268   1.381       .  A
C267        H270   1.082       .  S
C268        C592   1.472       .  S
C268        C269   1.384       .  A
C269        H271   1.082       .  S
Cu272       N275   2.057       .  S
Cu273       N283   2.073       .  S
Cu274       N276   2.082       .  S
Cu274       N282   2.083       .  S
N275        C279   1.341       .  A
N275        N276   1.322       .  A
N276        C277   1.347       .  A
C277        C278   1.387       .  A
C277        H280   1.082       .  S
C278        C640   1.477       .  S
C278        C279   1.380       .  A
C279        H281   1.082       .  S
N282        C286   1.346       .  A
N282        N283   1.323       .  A
N283        C284   1.344       .  A
C284        C285   1.383       .  A
C284        H287   1.082       .  S
C285        C292   1.480       .  S
C285        C286   1.385       .  A
C286        H288   1.082       .  S
C289        C290   1.403       .  A
C289        C294   1.413       .  A
C290        C291   1.400       .  A
C290        H299   1.084       .  S
C291        C292   1.414       .  A
C291        S295   1.803       .  S
C292        C293   1.403       .  A
C293        C294   1.400       .  A
C293        H300   1.084       .  S
C294        S296   1.803       .  S
S295        H298   1.407       .  S
S296        H297   1.407       .  S
C301        C302   1.406       .  A
C301        C306   1.415       .  A
C302        C303   1.397   1_556  A
C302        H311   1.084       .  S
C303        C304   1.415       .  A
C303        S307   1.804       .  S
C304        C305   1.406       .  A
C305        C306   1.404   1_554  A
C305        H312   1.084       .  S
C306        S308   1.796       .  S
S307        H310   1.407       .  S
S308        H309   1.406       .  S
C313        C314   1.403       .  A
C313        C318   1.414       .  A
C314        C315   1.397       .  A
C314        H323   1.083       .  S
C315        C316   1.412       .  A
C315        S319   1.803       .  S
C316        C317   1.403       .  A
C317        C318   1.400       .  A
C317        H324   1.084       .  S
C318        S320   1.801       .  S
S319        H322   1.407       .  S
S320        H321   1.407       .  S
C325        C326   1.401   1_556  A
C325        C330   1.411       .  A
C326        C327   1.399       .  A
C326        H335   1.084       .  S
C327        C328   1.416   1_565  A
C327        S331   1.804   1_565  S
C328        C329   1.403   1_554  A
C329        C330   1.398   1_545  A
C329        H336   1.084       .  S
C330        S332   1.802       .  S
S331        H334   1.407       .  S
S332        H333   1.406       .  S
C337        C338   1.403   1_554  A
C337        C342   1.412   1_554  A
C338        C339   1.405       .  A
C338        H347   1.084   1_556  S
C339        C340   1.417       .  A
C339        S343   1.796       .  S
C340        C341   1.407       .  A
C341        C342   1.397       .  A
C341        H348   1.083       .  S
C342        S344   1.805       .  S
S343        H346   1.407       .  S
S344        H345   1.407       .  S
C349        C350   1.403       .  A
C349        C354   1.416       .  A
C350        C351   1.401   1_554  A
C350        H359   1.084       .  S
C351        C352   1.418       .  A
C351        S355   1.803       .  S
C352        C353   1.403   1_556  A
C353        C354   1.397       .  A
C353        H360   1.084       .  S
C354        S356   1.804       .  S
S355        H358   1.407   1_556  S
S356        H357   1.407       .  S
C361        C362   1.403       .  A
C361        C366   1.413       .  A
C362        C363   1.399       .  A
C362        H371   1.084   1_655  S
C363        C364   1.412       .  A
C363        S367   1.803   1_655  S
C364        C365   1.404       .  A
C365        C366   1.400       .  A
C365        H372   1.084       .  S
C366        S368   1.803       .  S
S367        H370   1.407   1_455  S
S368        H369   1.407       .  S
C373        C374   1.404       .  A
C373        C378   1.414       .  A
C374        C375   1.397       .  A
C374        H383   1.084       .  S
C375        C376   1.413       .  A
C375        S379   1.804       .  S
C376        C377   1.404       .  A
C377        C378   1.402       .  A
C377        H384   1.084       .  S
C378        S380   1.803       .  S
S379        H382   1.407       .  S
S380        H381   1.407       .  S
C385        C386   1.404       .  A
C385        C390   1.414       .  A
C386        C387   1.398       .  A
C386        H395   1.084       .  S
C387        C388   1.414       .  A
C387        S391   1.804       .  S
C388        C389   1.403       .  A
C389        C390   1.406       .  A
C389        H396   1.083       .  S
C390        S392   1.807       .  S
S391        H394   1.407       .  S
S392        H393   1.407       .  S
C397        C398   1.405       .  A
C397        C402   1.417   1_556  A
C398        C399   1.399       .  A
C398        H407   1.084       .  S
C399        C400   1.415   1_556  A
C399        S403   1.804       .  S
C400        C401   1.401       .  A
C401        C402   1.398       .  A
C401        H408   1.084       .  S
C402        S404   1.797       .  S
S403        H406   1.407       .  S
S404        H405   1.407       .  S
C409        C410   1.406       .  A
C409        C414   1.415       .  A
C410        C411   1.400       .  A
C410        H419   1.084       .  S
C411        C412   1.412       .  A
C411        S415   1.803       .  S
C412        C413   1.403       .  A
C413        C414   1.401       .  A
C413        H420   1.084       .  S
C414        S416   1.802       .  S
S415        H418   1.406       .  S
S416        H417   1.407       .  S
C421        C422   1.403   1_556  A
C421        C426   1.412       .  A
C422        C423   1.398       .  A
C422        H431   1.084       .  S
C423        C424   1.411   1_565  A
C423        S427   1.804       .  S
C424        C425   1.402   1_554  A
C425        C426   1.397   1_545  A
C425        H432   1.084       .  S
C426        S428   1.804       .  S
S427        H430   1.407   1_565  S
S428        H429   1.407       .  S
C433        C434   1.406       .  A
C433        C438   1.418   1_554  A
C434        C435   1.398       .  A
C434        H443   1.083       .  S
C435        C436   1.407   1_554  A
C435        S439   1.804       .  S
C436        C437   1.400       .  A
C437        C438   1.401       .  A
C437        H444   1.084       .  S
C438        S440   1.801       .  S
S439        H442   1.407       .  S
S440        H441   1.407       .  S
C445        C446   1.404       .  A
C445        C450   1.415       .  A
C446        C447   1.400   1_556  A
C446        H455   1.084       .  S
C447        C448   1.413       .  A
C447        S451   1.803       .  S
C448        C449   1.402       .  A
C449        C450   1.397   1_554  A
C449        H456   1.084       .  S
C450        S452   1.804       .  S
S451        H454   1.407       .  S
S452        H453   1.407       .  S
C457        C458   1.406       .  A
C457        C462   1.414       .  A
C458        C459   1.400       .  A
C458        H467   1.084       .  S
C459        C460   1.411       .  A
C459        S463   1.804       .  S
C460        C461   1.402       .  A
C461        C462   1.397       .  A
C461        H468   1.085       .  S
C462        S464   1.802       .  S
S463        H466   1.407       .  S
S464        H465   1.407       .  S
C469        C470   1.401       .  A
C469        C474   1.413       .  A
C470        C471   1.397       .  A
C470        H479   1.084       .  S
C471        C472   1.419       .  A
C471        S475   1.804       .  S
C472        C473   1.406       .  A
C473        C474   1.402       .  A
C473        H480   1.084       .  S
C474        S476   1.802       .  S
S475        H478   1.407       .  S
S476        H477   1.406       .  S
C481        C482   1.404       .  A
C481        C486   1.416       .  A
C482        C483   1.399       .  A
C482        H491   1.084       .  S
C483        C484   1.415       .  A
C483        S487   1.803       .  S
C484        C485   1.405       .  A
C485        C486   1.401       .  A
C485        H492   1.084       .  S
C486        S488   1.803       .  S
S487        H490   1.407       .  S
S488        H489   1.407       .  S
C493        C494   1.402       .  A
C493        C498   1.412       .  A
C494        C495   1.403       .  A
C494        H503   1.084       .  S
C495        C496   1.420       .  A
C495        S499   1.803       .  S
C496        C497   1.406       .  A
C497        C498   1.397       .  A
C497        H504   1.083       .  S
C498        S500   1.803       .  S
S499        H502   1.407       .  S
S500        H501   1.407       .  S
C505        C506   1.403       .  A
C505        C510   1.412       .  A
C506        C507   1.402       .  A
C506        H515   1.084       .  S
C507        C508   1.416       .  A
C507        S511   1.802       .  S
C508        C509   1.404       .  A
C509        C510   1.395       .  A
C509        H516   1.084       .  S
C510        S512   1.804       .  S
S511        H514   1.407       .  S
S512        H513   1.407       .  S
C517        C518   1.404       .  A
C517        C522   1.415       .  A
C518        C519   1.399       .  A
C518        H527   1.084       .  S
C519        C520   1.414       .  A
C519        S523   1.803       .  S
C520        C521   1.403       .  A
C521        C522   1.401       .  A
C521        H528   1.084   1_655  S
C522        S524   1.803   1_655  S
S523        H526   1.407       .  S
S524        H525   1.407   1_455  S
C529        C530   1.403       .  A
C529        C534   1.412       .  A
C530        C531   1.401       .  A
C530        H539   1.084       .  S
C531        C532   1.416       .  A
C531        S535   1.804       .  S
C532        C533   1.404       .  A
C533        C534   1.400       .  A
C533        H540   1.084       .  S
C534        S536   1.803       .  S
S535        H538   1.407       .  S
S536        H537   1.406       .  S
C541        C542   1.405       .  A
C541        C546   1.414       .  A
C542        C543   1.402       .  A
C542        H551   1.084       .  S
C543        C544   1.413       .  A
C543        S547   1.801       .  S
C544        C545   1.404       .  A
C545        C546   1.398       .  A
C545        H552   1.084       .  S
C546        S548   1.802       .  S
S547        H550   1.407       .  S
S548        H549   1.407       .  S
C553        C554   1.404       .  A
C553        C558   1.412       .  A
C554        C555   1.401       .  A
C554        H563   1.083       .  S
C555        C556   1.414       .  A
C555        S559   1.803       .  S
C556        C557   1.404       .  A
C557        C558   1.400       .  A
C557        H564   1.083       .  S
C558        S560   1.802       .  S
S559        H562   1.407       .  S
S560        H561   1.407       .  S
C565        C566   1.405       .  A
C565        C570   1.414       .  A
C566        C567   1.399       .  A
C566        H575   1.084       .  S
C567        C568   1.413       .  A
C567        S571   1.803       .  S
C568        C569   1.405       .  A
C569        C570   1.398       .  A
C569        H576   1.084       .  S
C570        S572   1.803       .  S
S571        H574   1.407       .  S
S572        H573   1.407       .  S
C577        C578   1.402       .  A
C577        C582   1.411       .  A
C578        C579   1.401       .  A
C578        H587   1.084       .  S
C579        C580   1.415       .  A
C579        S583   1.799       .  S
C580        C581   1.404       .  A
C581        C582   1.402       .  A
C581        H588   1.083       .  S
C582        S584   1.808       .  S
S583        H586   1.407       .  S
S584        H585   1.407       .  S
C589        C590   1.405       .  A
C589        C594   1.416       .  A
C590        C591   1.396       .  A
C590        H599   1.084       .  S
C591        C592   1.411       .  A
C591        S595   1.804       .  S
C592        C593   1.402       .  A
C593        C594   1.400       .  A
C593        H600   1.084       .  S
C594        S596   1.803       .  S
S595        H598   1.407       .  S
S596        H597   1.407       .  S
C601        C602   1.405   1_545  A
C601        C606   1.414       .  A
C602        C603   1.401       .  A
C602        H611   1.084       .  S
C603        C604   1.413       .  A
C603        S607   1.803       .  S
C604        C605   1.402       .  A
C605        C606   1.399   1_565  A
C605        H612   1.084       .  S
C606        S608   1.803       .  S
S607        H610   1.407       .  S
S608        H609   1.407       .  S
C613        C614   1.403       .  A
C613        C618   1.410       .  A
C614        C615   1.399       .  A
C614        H623   1.084       .  S
C615        C616   1.414       .  A
C615        S619   1.803       .  S
C616        C617   1.406       .  A
C617        C618   1.398       .  A
C617        H624   1.084       .  S
C618        S620   1.803       .  S
S619        H622   1.407       .  S
S620        H621   1.407       .  S
C625        C626   1.403       .  A
C625        C630   1.412       .  A
C626        C627   1.398       .  A
C626        H635   1.084       .  S
C627        C628   1.413       .  A
C627        S631   1.802       .  S
C628        C629   1.404       .  A
C629        C630   1.397       .  A
C629        H636   1.084       .  S
C630        S632   1.804       .  S
S631        H634   1.406       .  S
S632        H633   1.407       .  S
C637        C638   1.405       .  A
C637        C642   1.413       .  A
C638        C639   1.399       .  A
C638        H647   1.084       .  S
C639        C640   1.411       .  A
C639        S643   1.803       .  S
C640        C641   1.404       .  A
C641        C642   1.401       .  A
C641        H648   1.083       .  S
C642        S644   1.808       .  S
S643        H646   1.407       .  S
S644        H645   1.406       .  S
C649        C650   1.405       .  A
C649        C654   1.413       .  A
C650        C651   1.399       .  A
C650        H659   1.084       .  S
C651        C652   1.412       .  A
C651        S655   1.803       .  S
C652        C653   1.404       .  A
C653        C654   1.398       .  A
C653        H660   1.084       .  S
C654        S656   1.803       .  S
S655        H658   1.407       .  S
S656        H657   1.407       .  S
C661        C662   1.405       .  A
C661        C666   1.415       .  A
C662        C663   1.400       .  A
C662        H671   1.084       .  S
C663        C664   1.414       .  A
C663        S667   1.803       .  S
C664        C665   1.403       .  A
C665        C666   1.399       .  A
C665        H672   1.084       .  S
C666        S668   1.802       .  S
S667        H670   1.407       .  S
S668        H669   1.407       .  S
C673        C674   1.402       .  A
C673        C678   1.413       .  A
C674        C675   1.398       .  A
C674        H683   1.084       .  S
C675        C676   1.414       .  A
C675        S679   1.804       .  S
C676        C677   1.403       .  A
C677        C678   1.401       .  A
C677        H684   1.084       .  S
C678        S680   1.803       .  S
S679        H682   1.407       .  S
S680        H681   1.407       .  S
C685        C686   1.403       .  A
C685        C690   1.413       .  A
C686        C687   1.400       .  A
C686        H695   1.084       .  S
C687        C688   1.414       .  A
C687        S691   1.803       .  S
C688        C689   1.403       .  A
C689        C690   1.399       .  A
C689        H696   1.084       .  S
C690        S692   1.804       .  S
S691        H694   1.406       .  S
S692        H693   1.407       .  S
C697        C698   1.404       .  A
C697        C702   1.414       .  A
C698        C699   1.405   1_545  A
C698        H707   1.084       .  S
C699        C700   1.418       .  A
C699        S703   1.802       .  S
C700        C701   1.405       .  A
C701        C702   1.396   1_565  A
C701        H708   1.083       .  S
C702        S704   1.805       .  S
S703        H706   1.407       .  S
S704        H705   1.407       .  S
C709        C710   1.405       .  A
C709        C714   1.413       .  A
C710        C711   1.404       .  A
C710        H719   1.084       .  S
C711        C712   1.419       .  A
C711        S715   1.799       .  S
C712        C713   1.409       .  A
C713        C714   1.397       .  A
C713        H720   1.083       .  S
C714        S716   1.804       .  S
S715        H718   1.408       .  S
S716        H717   1.407       .  S
