geometry optimzed in LAMMPS
_audit_creation_date              2020-11-30 
_audit_creation_method            'lammps2cif' 
_symmetry_space_group_name_H-M    'P1' 
_symmetry_Int_Tables_number       1 
_symmetry_cell_setting            triclinic 
loop_ 
_symmetry_equiv_pos_as_xyz 
  x,y,z 
_cell_length_a                    35.53117956 
_cell_length_b                    46.118609786056325 
_cell_length_c                    50.53719311713472 
_cell_angle_alpha                 89.99388768507362 
_cell_angle_beta                  106.1793016234322 
_cell_angle_gamma                 90.0098104960335 
loop_ 
_atom_site_label 
_atom_site_type_symbol 
_atom_site_fract_x 
_atom_site_fract_y 
_atom_site_fract_z 
_atom_site_charge 
N1          N  0.51239396  0.66808491  0.54954153    -0.26600
N2          N  0.49376761  0.69127798  0.53710508    -0.34400
C3          C  0.51511423  0.71501129  0.54638622     0.01800
C4          C  0.54854594  0.70650717  0.56601160     0.07800
C5          C  0.54598930  0.67663615  0.56778874    -0.05300
H6          H  0.50685102  0.73685587  0.53929603     0.08500
H7          H  0.56760006  0.66217398  0.58046490     0.09700
Cu8        Cu  0.44107992  0.69026311  0.50737808     0.44200
Cu9        Cu  0.49220023  0.62636892  0.53785315     0.42000
Cu10       Cu  0.40831624  0.62315098  0.47469443     0.43900
N11         N  0.39207694  0.68678424  0.47458374    -0.33900
N12         N  0.38082336  0.66235839  0.46106716    -0.28200
C13         C  0.34954461  0.66787802  0.43946658    -0.04300
C14         C  0.34062938  0.69707676  0.43999635     0.07900
C15         C  0.36810160  0.70834184  0.46251178     0.01700
H16         H  0.33412449  0.65182306  0.42481254     0.09400
H17         H  0.37116638  0.73071130  0.46922841     0.08400
N18         N  0.43773184  0.58727843  0.49560598    -0.35400
N19         N  0.46728724  0.58838883  0.51836607    -0.27600
C20         C  0.47873077  0.56118205  0.52632333    -0.02800
C21         C  0.45533988  0.54209138  0.50775279     0.05800
C22         C  0.42966915  0.55934782  0.48859123     0.03900
H23         H  0.50250689  0.55575722  0.54424009     0.09000
H24         H  0.40676357  0.55218884  0.47082973     0.07800
N25         N  0.39808343  0.38507130  0.46712652    -0.26600
N26         N  0.40865176  0.36193465  0.48287804    -0.34400
C27         C  0.38665353  0.33921976  0.47108111     0.01800
C28         C  0.36152601  0.34842966  0.44649189     0.07800
C29         C  0.36958286  0.37754119  0.44448125    -0.05300
H30         H  0.38989612  0.31738511  0.47924131     0.08500
H31         H  0.35562737  0.39218561  0.42792447     0.09700
Cu32       Cu  0.45539324  0.36150875  0.51789594     0.44200
Cu33       Cu  0.42204957  0.42577843  0.47826863     0.42000
Cu34       Cu  0.50251205  0.42901929  0.54225201     0.43900
N35         N  0.50735085  0.36442323  0.54877229    -0.33900
N36         N  0.52466178  0.38911311  0.55845876    -0.28200
C37         C  0.55885124  0.38320652  0.57739932    -0.04300
C38         C  0.56326510  0.35337964  0.57917875     0.07900
C39         C  0.53019129  0.34222821  0.56074360     0.01700
H40         H  0.57990177  0.39934964  0.58780138     0.09400
H41         H  0.52368620  0.31962603  0.55576733     0.08400
N42         N  0.47500673  0.46507881  0.52059828    -0.35400
N43         N  0.44624233  0.46392625  0.49742190    -0.27600
C44         C  0.43484130  0.49109475  0.48928479    -0.02800
C45         C  0.45756278  0.51022253  0.50818443     0.05800
C46         C  0.48270963  0.49300952  0.52772015     0.03900
H47         H  0.41152356  0.49645811  0.47107025     0.09000
H48         H  0.50483041  0.50019654  0.54590822     0.07800
N49         N  0.64162818  0.30171458  0.60574932    -0.26600
N50         N  0.64983527  0.32077155  0.62611516    -0.34400
C51         C  0.62369189  0.34265383  0.61974916     0.01800
C52         C  0.59758920  0.33662686  0.59441449     0.07800
C53         C  0.60975770  0.31055820  0.58623029    -0.05300
H54         H  0.62297139  0.36099063  0.63294693     0.08500
H55         H  0.59667164  0.29896921  0.56728183     0.09700
Cu56       Cu  0.69378933  0.31407825  0.66248572     0.44200
Cu57       Cu  0.67430457  0.26494337  0.60410479     0.42000
Cu58       Cu  0.75370801  0.24932397  0.66306633     0.43900
N59         N  0.73323643  0.29722036  0.69747858    -0.33900
N60         N  0.75467768  0.27373323  0.69762203    -0.28200
C61         C  0.77415153  0.26717597  0.72377006    -0.04300
C62         C  0.76438932  0.28740656  0.74089795     0.07900
C63         C  0.73853956  0.30619781  0.72358331     0.01700
H64         H  0.79284112  0.24842448  0.72986097     0.09400
H65         H  0.72344237  0.32435546  0.72953672     0.08400
N66         N  0.74332478  0.22600476  0.62675335    -0.35400
N67         N  0.71354620  0.23153386  0.60497961    -0.27600
C68         C  0.71409321  0.21256960  0.58484926    -0.02800
C69         C  0.74578315  0.19437213  0.59457019     0.05800
C70         C  0.76365934  0.20334003  0.62115319     0.03900
H71         H  0.69293393  0.21202838  0.56476729     0.09000
H72         H  0.78927405  0.19397612  0.63545114     0.07800
N73         N  0.87860126  0.26000404  0.91106974    -0.26600
N74         N  0.87345761  0.24435287  0.88839982    -0.34400
C75         C  0.89833802  0.22175594  0.89363804     0.01800
C76         C  0.92061845  0.22364527  0.92070821     0.07800
C77         C  0.90755526  0.24814198  0.93116983    -0.05300
H78         H  0.90129798  0.20599082  0.87849362     0.08500
H79         H  0.91835447  0.25677147  0.95181041     0.09700
Cu80       Cu  0.83681629  0.25619378  0.85046539     0.44200
Cu81       Cu  0.84611119  0.29664932  0.91390241     0.42000
Cu82       Cu  0.77997345  0.32093136  0.84984136     0.43900
N83         N  0.80369636  0.27574277  0.81468668    -0.33900
N84         N  0.78292213  0.29954088  0.81451758    -0.28200
C85         C  0.76578552  0.30733909  0.78830017    -0.04300
C86         C  0.77642385  0.28753222  0.77116811     0.07900
C87         C  0.80044922  0.26776756  0.78855099     0.01700
H88         H  0.74721042  0.32615038  0.78222766     0.09400
H89         H  0.81472322  0.24909642  0.78270403     0.08400
N90         N  0.78341439  0.33984204  0.88754663    -0.35400
N91         N  0.80777711  0.33115963  0.91107086    -0.27600
C92         C  0.80336924  0.34833633  0.93153546    -0.02800
C93         C  0.77489570  0.36862003  0.92018291     0.05800
C94         C  0.76288638  0.36275381  0.89234873     0.03900
H95         H  0.82002195  0.34642090  0.95293241     0.09000
H96         H  0.74132674  0.37450611  0.87666280     0.07800
N97         N  0.77473401  0.98807273  0.54273833    -0.26600
N98         N  0.79880041  0.97266980  0.53251216    -0.34400
C99         C  0.79250953  0.94427176  0.53603826     0.01800
C100        C  0.76307282  0.94201447  0.54898593     0.07800
C101        C  0.75253663  0.97007120  0.55296031    -0.05300
H102        H  0.80892657  0.92671503  0.53039184     0.08500
H103        H  0.73129492  0.97697431  0.56338946     0.09700
Cu104      Cu  0.84041550  0.99173573  0.51593323     0.44200
Cu105      Cu  0.77511120  0.03280014  0.54474602     0.42000
Cu106      Cu  0.84559753  0.07131480  0.51911076     0.43900
N107        N  0.87934239  0.01667821  0.50128999    -0.33900
N108        N  0.88098031  0.04535419  0.50227640    -0.28200
C109        C  0.90950771  0.05443584  0.49143048    -0.04300
C110        C  0.92674458  0.03038616  0.48330500     0.07900
C111        C  0.90688004  0.00683692  0.48984286     0.01700
H112        H  0.91740677  0.07689955  0.48991492     0.09400
H113        H  0.91220832  0.98417564  0.48671881     0.08400
N114        N  0.80791293  0.09166242  0.53824816    -0.35400
N115        N  0.78200606  0.07725945  0.54752751    -0.27600
C116        C  0.76289112  0.09589212  0.55963468    -0.02800
C117        C  0.77741292  0.12329380  0.55782006     0.05800
C118        C  0.80594430  0.11999828  0.54423051     0.03900
H119        H  0.74067407  0.08980259  0.56951038     0.09000
H120        H  0.82438892  0.13676246  0.53952847     0.07800
N121        N  0.72673543  0.48528547  0.96038343    -0.26600
N122        N  0.70392391  0.47004130  0.97187464    -0.34400
C123        C  0.71004441  0.44161323  0.96860998     0.01800
C124        C  0.73800895  0.43911071  0.95447759     0.07800
C125        C  0.74792060  0.46706131  0.94951222    -0.05300
H126        H  0.69436807  0.42418519  0.97519960     0.08500
H127        H  0.76803952  0.47371907  0.93806181     0.09700
Cu128      Cu  0.66333657  0.48875836  0.98935376     0.44200
Cu129      Cu  0.72624042  0.53003707  0.95788038     0.42000
Cu130      Cu  0.65770468  0.56779853  0.98577379     0.43900
N131        N  0.62324597  0.51328805  0.00286853    -0.33900
N132        N  0.62149359  0.54193327  0.00169445    -0.28200
C133        C  0.59175250  0.55100913  0.01122240    -0.04300
C134        C  0.57383986  0.52696547  0.01866583     0.07900
C135        C  0.59454209  0.50340249  0.01313146     0.01700
H136        H  0.58342017  0.57345483  0.01218599     0.09400
H137        H  0.58892421  0.48073814  0.01601967     0.08400
N138        N  0.69396474  0.58861460  0.96596232    -0.35400
N139        N  0.71910089  0.57454169  0.95567712    -0.27600
C140        C  0.73672107  0.59348032  0.94278714    -0.02800
C141        C  0.72195000  0.62069340  0.94512972     0.05800
C142        C  0.69489929  0.61699032  0.95987803     0.03900
H143        H  0.75786501  0.58770342  0.93187503     0.09000
H144        H  0.67649221  0.63345088  0.96510577     0.07800
N145        N  0.61953146  0.76359474  0.59130859    -0.26600
N146        N  0.62243461  0.74899389  0.61431010    -0.34400
C147        C  0.59911535  0.72550919  0.60865184     0.01800
C148        C  0.58021538  0.72568229  0.58083554     0.07800
C149        C  0.59356102  0.75013963  0.57046515    -0.05300
H150        H  0.59455425  0.71046546  0.62389496     0.08500
H151        H  0.58464250  0.75781439  0.54940253     0.09700
Cu152      Cu  0.65382203  0.76360282  0.65265248     0.44200
Cu153      Cu  0.65079020  0.80116663  0.58924014     0.42000
Cu154      Cu  0.70926215  0.82971549  0.65453978     0.43900
N155        N  0.68397676  0.78398039  0.68863002    -0.33900
N156        N  0.70433164  0.80813071  0.68951071    -0.28200
C157        C  0.72108329  0.81516608  0.71602443    -0.04300
C158        C  0.71065571  0.79441487  0.73248116     0.07900
C159        C  0.68707277  0.77503109  0.71444164     0.01700
H160        H  0.74002523  0.83367546  0.72275878     0.09400
H161        H  0.67374322  0.75553370  0.71960755     0.08400
N162        N  0.70947497  0.84685608  0.61655299    -0.35400
N163        N  0.68798769  0.83655478  0.59267607    -0.27600
C164        C  0.69476682  0.85245651  0.57212080    -0.02800
C165        C  0.72180378  0.87362710  0.58372066     0.05800
C166        C  0.73047394  0.86957724  0.61183458     0.03900
H167        H  0.68088410  0.84893270  0.55042346     0.09000
H168        H  0.75033502  0.88229811  0.62771430     0.07800
N169        N  0.85294905  0.80005735  0.89634995    -0.26600
N170        N  0.84339271  0.81980949  0.87664896    -0.34400
C171        C  0.86974774  0.84154051  0.88266797     0.01800
C172        C  0.89739536  0.83476658  0.90710665     0.07800
C173        C  0.88590780  0.80836223  0.91514972    -0.05300
H174        H  0.86952426  0.86029711  0.86976796     0.08500
H175        H  0.90028035  0.79612680  0.93344087     0.09700
Cu176      Cu  0.79745778  0.81428279  0.84135223     0.44200
Cu177      Cu  0.82060268  0.76301355  0.89761242     0.42000
Cu178      Cu  0.74056164  0.74755639  0.83835935     0.43900
N179        N  0.75700911  0.79907668  0.80619962    -0.33900
N180        N  0.73679255  0.77478232  0.80501963    -0.28200
C181        C  0.71616466  0.76995193  0.77874642    -0.04300
C182        C  0.72393713  0.79217651  0.76266278     0.07900
C183        C  0.74981992  0.81029182  0.78071619     0.01700
H184        H  0.69809398  0.75105415  0.77177419     0.09400
H185        H  0.76374368  0.82952999  0.77560427     0.08400
N186        N  0.75191021  0.72364955  0.87450314    -0.35400
N187        N  0.78161877  0.72933567  0.89629689    -0.27600
C188        C  0.78126603  0.71037210  0.91645233    -0.02800
C189        C  0.74982035  0.69198173  0.90678633     0.05800
C190        C  0.73183602  0.70082737  0.88016088     0.03900
H191        H  0.80238379  0.70999611  0.93655630     0.09000
H192        H  0.70623563  0.69136550  0.86592817     0.07800
N193        N  0.10210356  0.88354249  0.02926684    -0.26600
N194        N  0.09031705  0.85994821  0.01446004    -0.34400
C195        C  0.11230570  0.83735127  0.02651111     0.01800
C196        C  0.13877026  0.84718935  0.05027411     0.07800
C197        C  0.13146693  0.87650825  0.05155910    -0.05300
H198        H  0.10832999  0.81525678  0.01904983     0.08500
H199        H  0.14660478  0.89163734  0.06730662     0.09700
Cu200      Cu  0.04245733  0.85916790  0.98028563     0.44200
Cu201      Cu  0.07865979  0.92403699  0.01707606     0.42000
Cu202      Cu  0.99817877  0.92679719  0.95290695     0.43900
N203        N  0.98977847  0.86210213  0.95024877    -0.33900
N204        N  0.97354883  0.88671946  0.93938623    -0.28200
C205        C  0.93854301  0.88087171  0.92138220    -0.04300
C206        C  0.93250564  0.85121155  0.92145651     0.07900
C207        C  0.96547893  0.84006432  0.93997169     0.01700
H208        H  0.91820614  0.89707247  0.91024003     0.09400
H209        H  0.97108882  0.81762685  0.94604807     0.08400
N210        N  0.02650770  0.96293549  0.97386307    -0.35400
N211        N  0.05499866  0.96182155  0.99718925    -0.27600
C212        C  0.06636361  0.98893988  0.00535400    -0.02800
C213        C  0.04392258  0.00802840  0.98633867     0.05800
C214        C  0.01897277  0.99086812  0.96664493     0.03900
H215        H  0.08930429  0.99428515  0.02378899     0.09000
H216        H  0.99685551  0.99808975  0.94847046     0.07800
N217        N  0.12443674  0.15768083  0.03432674    -0.26600
N218        N  0.11511576  0.18245603  0.02100268    -0.34400
C219        C  0.14138419  0.20275645  0.03295859     0.01800
C220        C  0.16809810  0.19024135  0.05518796     0.07800
C221        C  0.15651109  0.16168961  0.05564682    -0.05300
H222        H  0.13994925  0.22527969  0.02675742     0.08500
H223        H  0.17029859  0.14510765  0.07029734     0.09700
Cu224      Cu  0.06456182  0.18842360  0.98961955     0.44200
Cu225      Cu  0.09360366  0.11985243  0.02149645     0.42000
Cu226      Cu  0.01172500  0.12493448  0.95863578     0.43900
N227        N  0.00996871  0.18991540  0.96168031    -0.33900
N228        N  0.99121295  0.16684790  0.94903746    -0.28200
C229        C  0.95665727  0.17531044  0.93201797    -0.04300
C230        C  0.95343683  0.20497446  0.93471222     0.07900
C231        C  0.98758603  0.21352535  0.95370612     0.01700
H232        H  0.93490881  0.16084018  0.91948384     0.09400
H233        H  0.99571172  0.23529503  0.96109800     0.08400
N234        N  0.03499829  0.08626447  0.97718483    -0.35400
N235        N  0.06383986  0.08463067  0.00027508    -0.27600
C236        C  0.07138657  0.05662783  0.00695698    -0.02800
C237        C  0.04609702  0.03982099  0.98718381     0.05800
C238        C  0.02340812  0.05924958  0.96860940     0.03900
H239        H  0.09382704  0.04913216  0.02483196     0.09000
H240        H  0.00011262  0.05419136  0.95028535     0.07800
N241        N  0.24061920  0.23997422  0.09490767    -0.26600
N242        N  0.23521066  0.22330345  0.11482201    -0.34400
C243        C  0.21056613  0.20165279  0.10356398     0.01800
C244        C  0.19961356  0.20530335  0.07531846     0.07800
C245        C  0.21907413  0.22975854  0.07053559    -0.05300
H246        H  0.19894482  0.18597977  0.11515163     0.08500
H247        H  0.21634855  0.24018402  0.05090792     0.09700
Cu248      Cu  0.25491189  0.23410480  0.15612891     0.44200
Cu249      Cu  0.27328533  0.27761373  0.10120182     0.42000
Cu250      Cu  0.30810804  0.30216838  0.17106582     0.43900
N251        N  0.27005512  0.25376702  0.19447115    -0.33900
N252        N  0.28957833  0.27847297  0.19992095    -0.28200
C253        C  0.29226502  0.28632343  0.22599861    -0.04300
C254        C  0.27329772  0.26566220  0.23740439     0.07900
C255        C  0.25962945  0.24530724  0.21689738     0.01700
H256        H  0.30583830  0.30611638  0.23557102     0.09400
H257        H  0.24239831  0.22620984  0.21787902     0.08400
N258        N  0.31805787  0.32431339  0.13801596    -0.35400
N259        N  0.30501405  0.31532198  0.11223689    -0.27600
C260        C  0.31462654  0.33489355  0.09549435    -0.02800
C261        C  0.33465489  0.35712242  0.11164338     0.05800
C262        C  0.33635463  0.34989517  0.13842753     0.03900
H263        H  0.30699338  0.33325322  0.07327240     0.09000
H264        H  0.34921552  0.36249033  0.15678310     0.07800
N265        N  0.29466047  0.29470520  0.40673496    -0.26600
N266        N  0.30138675  0.31051237  0.38670964    -0.34400
C267        C  0.32499454  0.33275239  0.39779126     0.01800
C268        C  0.33400125  0.33044453  0.42610763     0.07800
C269        C  0.31448537  0.30606236  0.43112489    -0.05300
H270        H  0.33640906  0.34847716  0.38613397     0.08500
H271        H  0.31486958  0.29710871  0.45098858     0.09700
Cu272      Cu  0.28288099  0.29872199  0.34561748     0.44200
Cu273      Cu  0.25884052  0.25857998  0.39990472     0.42000
Cu274      Cu  0.22308293  0.23417080  0.32914771     0.43900
N275        N  0.26887678  0.27872806  0.30745413    -0.33900
N276        N  0.24736762  0.25496255  0.30148249    -0.28200
C277        C  0.24551400  0.24668583  0.27563686    -0.04300
C278        C  0.26692569  0.26619137  0.26490233     0.07900
C279        C  0.28128691  0.28623471  0.28558698     0.01700
H280        H  0.23003333  0.22773269  0.26556000     0.09400
H281        H  0.29988611  0.30465239  0.28500376     0.08400
N282        N  0.20571717  0.21638860  0.36151667    -0.35400
N283        N  0.21913291  0.22515831  0.38736442    -0.27600
C284        C  0.20354089  0.20856357  0.40347314    -0.02800
C285        C  0.17920275  0.18855064  0.38690055     0.05800
C286        C  0.18121308  0.19392365  0.36048300     0.03900
H287        H  0.21023299  0.21050476  0.42563723     0.09000
H288        H  0.16688122  0.18193901  0.34202032     0.07800
N289        N  0.38386044  0.47913784  0.08267365    -0.26600
N290        N  0.41012880  0.46518492  0.07341659    -0.34400
C291        C  0.40561311  0.43648816  0.07618902     0.01800
C292        C  0.37505048  0.43244840  0.08767856     0.07800
C293        C  0.36188205  0.45977777  0.09159295    -0.05300
H294        H  0.42357150  0.41992163  0.07062008     0.08500
H295        H  0.33851458  0.46525180  0.10059300     0.09700
Cu296      Cu  0.45146611  0.48609198  0.05837263     0.44200
Cu297      Cu  0.38011160  0.52374566  0.08362046     0.42000
Cu298      Cu  0.45070084  0.56510923  0.05939422     0.43900
N299        N  0.49060940  0.51177773  0.04526141    -0.33900
N300        N  0.49034112  0.54045831  0.04551832    -0.28200
C301        C  0.51976197  0.55025843  0.03598130    -0.04300
C302        C  0.53948500  0.52661119  0.02952143     0.07900
C303        C  0.52021205  0.50258329  0.03563189     0.01700
H304        H  0.52644452  0.57291894  0.03412074     0.09400
H305        H  0.52721120  0.48005957  0.03337328     0.08400
N306        N  0.40817293  0.58377279  0.07504540    -0.35400
N307        N  0.38250859  0.56844109  0.08378036    -0.27600
C308        C  0.35918987  0.58651999  0.09284070    -0.02800
C309        C  0.37076709  0.61447252  0.08965080     0.05800
C310        C  0.40181458  0.61215904  0.07834443     0.03900
H311        H  0.33567779  0.57974853  0.10120196     0.09000
H312        H  0.41857438  0.62967991  0.07299153     0.07800
N313        N  0.11821123  0.07202669  0.41782575    -0.26600
N314        N  0.09115198  0.08705467  0.42530070    -0.34400
C315        C  0.09662152  0.11546163  0.42146600     0.01800
C316        C  0.12856356  0.11812240  0.41114989     0.07800
C317        C  0.14159519  0.09033910  0.40907424    -0.05300
H318        H  0.07844258  0.13274753  0.42556234     0.08500
H319        H  0.16582615  0.08382126  0.40136196     0.09700
Cu320      Cu  0.04764418  0.06803096  0.43971307     0.44200
Cu321      Cu  0.12127166  0.02738613  0.41826897     0.42000
Cu322      Cu  0.04642560  0.98927096  0.44020205     0.43900
N323        N  0.00788593  0.04358835  0.45369844    -0.33900
N324        N  0.00745448  0.01490842  0.45387893    -0.28200
C325        C  0.97847711  0.00583049  0.46426805    -0.04300
C326        C  0.95981103  0.02992970  0.47097881     0.07900
C327        C  0.97923162  0.05349435  0.46400669     0.01700
H328        H  0.97168484  0.98333162  0.46687132     0.09400
H329        H  0.97311646  0.07618055  0.46631925     0.08400
N330        N  0.08835428  0.96872338  0.42518340    -0.35400
N331        N  0.11585024  0.98286430  0.41738332    -0.27600
C332        C  0.13782018  0.96380426  0.40811977    -0.02800
C333        C  0.12342823  0.93643498  0.41022850     0.05800
C334        C  0.09212722  0.94015096  0.42107572     0.03900
H335        H  0.16206150  0.96953879  0.40009915     0.09000
H336        H  0.07324258  0.92346146  0.42535949     0.07800
N337        N  0.20647914  0.79402717  0.09002423    -0.26600
N338        N  0.20209882  0.81118992  0.10991855    -0.34400
C339        C  0.17858685  0.83341492  0.09871352     0.01800
C340        C  0.16717871  0.82970832  0.07050794     0.07800
C341        C  0.18519651  0.80453418  0.06564647    -0.05300
H342        H  0.16869181  0.85002481  0.11033344     0.08500
H343        H  0.18265725  0.79439221  0.04592037     0.09700
Cu344      Cu  0.22224457  0.80119732  0.15132452     0.44200
Cu345      Cu  0.24044029  0.75689495  0.09676787     0.42000
Cu346      Cu  0.27362670  0.73330006  0.16754184     0.43900
N347        N  0.23418922  0.78166555  0.18957998    -0.33900
N348        N  0.25242804  0.75650573  0.19537069    -0.28200
C349        C  0.25311532  0.74865320  0.22111074    -0.04300
C350        C  0.23429110  0.76988135  0.23195813     0.07900
C351        C  0.22271588  0.79052183  0.21146306     0.01700
H352        H  0.26585132  0.72875817  0.23097994     0.09400
H353        H  0.20643121  0.81019084  0.21212723     0.08400
N354        N  0.29024418  0.71367599  0.13572605    -0.35400
N355        N  0.27792413  0.72221806  0.10975437    -0.27600
C356        C  0.29357387  0.70491620  0.09419331    -0.02800
C357        C  0.31678798  0.68469148  0.11129477     0.05800
C358        C  0.31405010  0.69067963  0.13742105     0.03900
H359        H  0.28809370  0.70677439  0.07209978     0.09000
H360        H  0.32787503  0.67903641  0.15620119     0.07800
N361        N  0.26899017  0.74891660  0.40211257    -0.26600
N362        N  0.27026161  0.73084393  0.38207220    -0.34400
C363        C  0.29446329  0.70871951  0.39266471     0.01800
C364        C  0.30951334  0.71342903  0.42060830     0.07800
C365        C  0.29287761  0.73908091  0.42590651    -0.05300
H366        H  0.30256600  0.69164193  0.38063640     0.08500
H367        H  0.29851966  0.75020842  0.44547064     0.09700
Cu368      Cu  0.24533335  0.74006278  0.34087659     0.44200
Cu369      Cu  0.23672359  0.78696412  0.39618910     0.42000
Cu370      Cu  0.19539503  0.80923188  0.32564959     0.43900
N371        N  0.22989320  0.75901064  0.30225959    -0.33900
N372        N  0.21211792  0.78438426  0.29673661    -0.28200
C373        C  0.21001017  0.79183077  0.27063931    -0.04300
C374        C  0.22750068  0.77015658  0.25931939     0.07900
C375        C  0.23966053  0.74965716  0.27987110     0.01700
H376        H  0.19794774  0.81200757  0.26102031     0.09400
H377        H  0.25580058  0.72995747  0.27903843     0.08400
N378        N  0.18610643  0.83125519  0.35896511    -0.35400
N379        N  0.20148744  0.82321275  0.38485451    -0.27600
C380        C  0.19068582  0.84222422  0.40155813    -0.02800
C381        C  0.16744510  0.86305576  0.38530453     0.05800
C382        C  0.16512482  0.85561871  0.35846747     0.03900
H383        H  0.19944923  0.84108682  0.42382479     0.09000
H384        H  0.14979753  0.86718689  0.33998033     0.07800
C385        C  0.15075374  0.88816418  0.39446411    -0.12500
C386        C  0.13764284  0.90980004  0.40189776    -0.14100
C387        C  0.33752936  0.66108836  0.10332223    -0.12500
C388        C  0.35364495  0.64040326  0.09684875    -0.14100
C389        C  0.15941160  0.16494954  0.39575317    -0.12500
C390        C  0.14442722  0.14416011  0.40306571    -0.14100
C391        C  0.36098656  0.40546364  0.09532780    -0.12500
C392        C  0.34904946  0.38319048  0.10244293    -0.14100
C393        C  0.73077391  0.64685651  0.93260637    -0.12500
C394        C  0.73903080  0.66783875  0.92111893    -0.14100
C395        C  0.73667685  0.89618388  0.56969474    -0.12500
C396        C  0.74904626  0.91629484  0.55930381    -0.14100
C397        C  0.75106140  0.41309189  0.94416623    -0.12500
C398        C  0.76203527  0.39226350  0.93397420    -0.14100
C399        C  0.75709799  0.17027909  0.58043644    -0.12500
C400        C  0.76662579  0.14934990  0.56951927    -0.14100
loop_ 
_geom_bond_atom_site_label_1 
_geom_bond_atom_site_label_2 
_geom_bond_distance 
_geom_bond_site_symmetry_2 
_ccdc_geom_bond_type 
N1            N2   1.321       .  A
N1            C5   1.348       .  A
N1           Cu9   2.081       .  S
N2            C3   1.340       .  A
N2           Cu8   2.049       .  S
C3            C4   1.376       .  A
C3            H6   1.082       .  S
C4            C5   1.385       .  A
C4          C148   1.463       .  S
C5            H7   1.082       .  S
Cu8          N11   2.048       .  S
Cu9          N19   2.082       .  S
Cu10         N12   2.079       .  S
Cu10         N18   2.081       .  S
N11          N12   1.320       .  A
N11          C15   1.340       .  A
N12          C13   1.347       .  A
C13          C14   1.385       .  A
C13          H16   1.082       .  S
C14          C15   1.378       .  A
C14         C364   1.465       .  S
C15          H17   1.082       .  S
N18          N19   1.325       .  A
N18          C22   1.346       .  A
N19          C20   1.345       .  A
C20          C21   1.383       .  A
C20          H23   1.082       .  S
C21          C22   1.382       .  A
C21          C45   1.472       .  S
C22          H24   1.082       .  S
N25          N26   1.322       .  A
N25          C29   1.345       .  A
N25         Cu33   2.073       .  S
N26          C27   1.343       .  A
N26         Cu32   2.062       .  S
C27          C28   1.380       .  A
C27          H30   1.082       .  S
C28          C29   1.382       .  A
C28         C268   1.464       .  S
C29          H31   1.082       .  S
Cu32         N35   2.063       .  S
Cu33         N43   2.075       .  S
Cu34         N36   2.078       .  S
Cu34         N42   2.079       .  S
N35          N36   1.322       .  A
N35          C39   1.341       .  A
N36          C37   1.348       .  A
C37          C38   1.385       .  A
C37          H40   1.082       .  S
C38          C39   1.380       .  A
C38          C52   1.468       .  S
C39          H41   1.082       .  S
N42          N43   1.324       .  A
N42          C46   1.345       .  A
N43          C44   1.346       .  A
C44          C45   1.383       .  A
C44          H47   1.082       .  S
C45          C46   1.383       .  A
C46          H48   1.082       .  S
N49          N50   1.323       .  A
N49          C53   1.341       .  A
N49         Cu57   2.070       .  S
N50          C51   1.349       .  A
N50         Cu56   2.077       .  S
C51          C52   1.384       .  A
C51          H54   1.082       .  S
C52          C53   1.380       .  A
C53          H55   1.082       .  S
Cu56         N59   2.077       .  S
Cu57         N67   2.070       .  S
Cu58         N60   2.070       .  S
Cu58         N66   2.070       .  S
N59          N60   1.323       .  A
N59          C63   1.345       .  A
N60          C61   1.344       .  A
C61          C62   1.381       .  A
C61          H64   1.082       .  S
C62          C63   1.383       .  A
C62          C86   1.469       .  S
C63          H65   1.082       .  S
N66          N67   1.322       .  A
N66          C70   1.345       .  A
N67          C68   1.346       .  A
C68          C69   1.380       .  A
C68          H71   1.082       .  S
C69          C70   1.380       .  A
C69         C399   1.438       .  S
C70          H72   1.082       .  S
N73          N74   1.323       .  A
N73          C77   1.344       .  A
N73         Cu81   2.074       .  S
N74          C75   1.344       .  A
N74         Cu80   2.068       .  S
C75          C76   1.379       .  A
C75          H78   1.082       .  S
C76          C77   1.381       .  A
C76         C230   1.464       .  S
C77          H79   1.082       .  S
Cu80         N83   2.069       .  S
Cu81         N91   2.074       .  S
Cu82         N84   2.068       .  S
Cu82         N90   2.068       .  S
N83          N84   1.321       .  A
N83          C87   1.345       .  A
N84          C85   1.344       .  A
C85          C86   1.382       .  A
C85          H88   1.082       .  S
C86          C87   1.383       .  A
C87          H89   1.082       .  S
N90          N91   1.323       .  A
N90          C94   1.344       .  A
N91          C92   1.346       .  A
C92          C93   1.380       .  A
C92          H95   1.082       .  S
C93          C94   1.378       .  A
C93         C398   1.436       .  S
C94          H96   1.082       .  S
N97          N98   1.323       .  A
N97         C101   1.343       .  A
N97        Cu105   2.065   1_565  S
N98          C99   1.349       .  A
N98        Cu104   2.086       .  S
C99         C100   1.384       .  A
C99         H102   1.082       .  S
C100        C101   1.377       .  A
C100        C396   1.439       .  S
C101        H103   1.082       .  S
Cu104       N107   2.087   1_565  S
Cu105       N115   2.065       .  S
Cu106       N108   2.082       .  S
Cu106       N114   2.081       .  S
N107        N108   1.324       .  A
N107        C111   1.347       .  A
N108        C109   1.346       .  A
C109        C110   1.384       .  A
C109        H112   1.082       .  S
C110        C111   1.384       .  A
C110        C326   1.475       .  S
C111        H113   1.082   1_545  S
N114        N115   1.322       .  A
N114        C118   1.348       .  A
N115        C116   1.344       .  A
C116        C117   1.378       .  A
C116        H119   1.082       .  S
C117        C118   1.382       .  A
C117        C400   1.438       .  S
C118        H120   1.082       .  S
N121        N122   1.323       .  A
N121        C125   1.344       .  A
N121       Cu129   2.068       .  S
N122        C123   1.347       .  A
N122       Cu128   2.077       .  S
C123        C124   1.381       .  A
C123        H126   1.082       .  S
C124        C125   1.378       .  A
C124        C397   1.436       .  S
C125        H127   1.082       .  S
Cu128       N131   2.078   1_556  S
Cu129       N139   2.067       .  S
Cu130       N132   2.074   1_556  S
Cu130       N138   2.074       .  S
N131        N132   1.323       .  A
N131        C135   1.346       .  A
N132        C133   1.344       .  A
C133        C134   1.382       .  A
C133        H136   1.082       .  S
C134        C135   1.384       .  A
C134        C302   1.471       .  S
C135        H137   1.082       .  S
N138        N139   1.322       .  A
N138        C142   1.347       .  A
N139        C140   1.344       .  A
C140        C141   1.378       .  A
C140        H143   1.082       .  S
C141        C142   1.381       .  A
C141        C393   1.437       .  S
C142        H144   1.082       .  S
N145        N146   1.322       .  A
N145        C149   1.343       .  A
N145       Cu153   2.076       .  S
N146        C147   1.345       .  A
N146       Cu152   2.061       .  S
C147        C148   1.379       .  A
C147        H150   1.082       .  S
C148        C149   1.382       .  A
C149        H151   1.082       .  S
Cu152       N155   2.062       .  S
Cu153       N163   2.077       .  S
Cu154       N156   2.078       .  S
Cu154       N162   2.078       .  S
N155        N156   1.322       .  A
N155        C159   1.343       .  A
N156        C157   1.346       .  A
C157        C158   1.384       .  A
C157        H160   1.082       .  S
C158        C159   1.381       .  A
C158        C182   1.469       .  S
C159        H161   1.082       .  S
N162        N163   1.323       .  A
N162        C166   1.346       .  A
N163        C164   1.347       .  A
C164        C165   1.380       .  A
C164        H167   1.082       .  S
C165        C166   1.380       .  A
C165        C395   1.440       .  S
C166        H168   1.082       .  S
N169        N170   1.322       .  A
N169        C173   1.342       .  A
N169       Cu177   2.070       .  S
N170        C171   1.347       .  A
N170       Cu176   2.071       .  S
C171        C172   1.383       .  A
C171        H174   1.082       .  S
C172        C173   1.381       .  A
C172        C206   1.467       .  S
C173        H175   1.082       .  S
Cu176       N179   2.071       .  S
Cu177       N187   2.070       .  S
Cu178       N180   2.075       .  S
Cu178       N186   2.075       .  S
N179        N180   1.323       .  A
N179        C183   1.345       .  A
N180        C181   1.344       .  A
C181        C182   1.383       .  A
C181        H184   1.082       .  S
C182        C183   1.381       .  A
C183        H185   1.082       .  S
N186        N187   1.322       .  A
N186        C190   1.346       .  A
N187        C188   1.345       .  A
C188        C189   1.379       .  A
C188        H191   1.082       .  S
C189        C190   1.381       .  A
C189        C394   1.437       .  S
C190        H192   1.082       .  S
N193        N194   1.321       .  A
N193        C197   1.345       .  A
N193       Cu201   2.068       .  S
N194        C195   1.343       .  A
N194       Cu200   2.059   1_554  S
C195        C196   1.379       .  A
C195        H198   1.082       .  S
C196        C197   1.382       .  A
C196        C340   1.463       .  S
C197        H199   1.082       .  S
Cu200       N203   2.060   1_455  S
Cu201       N211   2.069   1_554  S
Cu202       N204   2.077       .  S
Cu202       N210   2.078   1_655  S
N203        N204   1.322       .  A
N203        C207   1.341       .  A
N204        C205   1.348       .  A
C205        C206   1.385       .  A
C205        H208   1.082       .  S
C206        C207   1.379       .  A
C207        H209   1.082       .  S
N210        N211   1.324       .  A
N210        C214   1.345       .  A
N211        C212   1.343   1_556  A
C212        C213   1.381   1_564  A
C212        H215   1.082       .  S
C213        C214   1.382   1_545  A
C213        C237   1.468       .  S
C214        H216   1.082   1_455  S
N217        N218   1.321       .  A
N217        C221   1.345       .  A
N217       Cu225   2.066       .  S
N218        C219   1.341       .  A
N218       Cu224   2.057   1_554  S
C219        C220   1.379       .  A
C219        H222   1.082       .  S
C220        C221   1.382       .  A
C220        C244   1.462       .  S
C221        H223   1.082       .  S
Cu224       N227   2.058       .  S
Cu225       N235   2.068       .  S
Cu226       N228   2.075   1_455  S
Cu226       N234   2.076       .  S
N227        N228   1.322   1_455  A
N227        C231   1.342   1_455  A
N228        C229   1.346       .  A
C229        C230   1.383       .  A
C229        H232   1.082       .  S
C230        C231   1.378       .  A
C231        H233   1.082       .  S
N234        N235   1.323   1_556  A
N234        C238   1.345       .  A
N235        C236   1.343       .  A
C236        C237   1.381   1_554  A
C236        H239   1.082       .  S
C237        C238   1.383       .  A
C238        H240   1.082       .  S
N241        N242   1.322       .  A
N241        C245   1.341       .  A
N241       Cu249   2.063       .  S
N242        C243   1.345       .  A
N242       Cu248   2.069       .  S
C243        C244   1.381       .  A
C243        H246   1.082       .  S
C244        C245   1.379       .  A
C245        H247   1.082       .  S
Cu248       N251   2.070       .  S
Cu249       N259   2.063       .  S
Cu250       N252   2.071       .  S
Cu250       N258   2.070       .  S
N251        N252   1.322       .  A
N251        C255   1.345       .  A
N252        C253   1.344       .  A
C253        C254   1.382       .  A
C253        H256   1.082       .  S
C254        C255   1.382       .  A
C254        C278   1.469       .  S
C255        H257   1.082       .  S
N258        N259   1.322       .  A
N258        C262   1.344       .  A
N259        C260   1.345       .  A
C260        C261   1.378       .  A
C260        H263   1.082       .  S
C261        C262   1.379       .  A
C261        C392   1.434       .  S
C262        H264   1.082       .  S
N265        N266   1.322       .  A
N265        C269   1.344       .  A
N265       Cu273   2.066       .  S
N266        C267   1.344       .  A
N266       Cu272   2.069       .  S
C267        C268   1.381       .  A
C267        H270   1.082       .  S
C268        C269   1.381       .  A
C269        H271   1.082       .  S
Cu272       N275   2.070       .  S
Cu273       N283   2.066       .  S
Cu274       N276   2.071       .  S
Cu274       N282   2.072       .  S
N275        N276   1.322       .  A
N275        C279   1.344       .  A
N276        C277   1.345       .  A
C277        C278   1.383       .  A
C277        H280   1.082       .  S
C278        C279   1.382       .  A
C279        H281   1.082       .  S
N282        N283   1.323       .  A
N282        C286   1.345       .  A
N283        C284   1.344       .  A
C284        C285   1.377       .  A
C284        H287   1.082       .  S
C285        C286   1.379       .  A
C285        C389   1.433       .  S
C286        H288   1.082       .  S
N289        N290   1.322       .  A
N289        C293   1.344       .  A
N289       Cu297   2.063       .  S
N290        C291   1.345       .  A
N290       Cu296   2.070       .  S
C291        C292   1.379       .  A
C291        H294   1.082       .  S
C292        C293   1.378       .  A
C292        C391   1.434       .  S
C293        H295   1.082       .  S
Cu296       N299   2.071       .  S
Cu297       N307   2.063       .  S
Cu298       N300   2.078       .  S
Cu298       N306   2.078       .  S
N299        N300   1.323       .  A
N299        C303   1.345       .  A
N300        C301   1.345       .  A
C301        C302   1.384       .  A
C301        H304   1.082       .  S
C302        C303   1.382       .  A
C303        H305   1.082       .  S
N306        N307   1.323       .  A
N306        C310   1.347       .  A
N307        C308   1.343       .  A
C308        C309   1.376       .  A
C308        H311   1.082       .  S
C309        C310   1.381       .  A
C309        C388   1.434       .  S
C310        H312   1.082       .  S
N313        N314   1.323       .  A
N313        C317   1.343       .  A
N313       Cu321   2.061       .  S
N314        C315   1.346       .  A
N314       Cu320   2.078       .  S
C315        C316   1.380       .  A
C315        H318   1.082       .  S
C316        C317   1.376       .  A
C316        C390   1.433       .  S
C317        H319   1.082       .  S
Cu320       N323   2.079       .  S
Cu321       N331   2.062   1_545  S
Cu322       N324   2.080   1_565  S
Cu322       N330   2.079       .  S
N323        N324   1.323       .  A
N323        C327   1.346   1_455  A
N324        C325   1.346   1_455  A
C325        C326   1.384       .  A
C325        H328   1.082   1_545  S
C326        C327   1.384       .  A
C327        H329   1.082       .  S
N330        N331   1.323       .  A
N330        C334   1.347       .  A
N331        C332   1.344       .  A
C332        C333   1.377       .  A
C332        H335   1.082       .  S
C333        C334   1.381       .  A
C333        C386   1.435       .  S
C334        H336   1.082       .  S
N337        N338   1.322       .  A
N337        C341   1.344       .  A
N337       Cu345   2.068       .  S
N338        C339   1.344       .  A
N338       Cu344   2.066       .  S
C339        C340   1.380       .  A
C339        H342   1.082       .  S
C340        C341   1.381       .  A
C341        H343   1.082       .  S
Cu344       N347   2.067       .  S
Cu345       N355   2.068       .  S
Cu346       N348   2.069       .  S
Cu346       N354   2.069       .  S
N347        N348   1.322       .  A
N347        C351   1.344       .  A
N348        C349   1.344       .  A
C349        C350   1.382       .  A
C349        H352   1.082       .  S
C350        C351   1.382       .  A
C350        C374   1.468       .  S
C351        H353   1.082       .  S
N354        N355   1.323       .  A
N354        C358   1.344       .  A
N355        C356   1.345       .  A
C356        C357   1.378       .  A
C356        H359   1.082       .  S
C357        C358   1.379       .  A
C357        C387   1.434       .  S
C358        H360   1.082       .  S
N361        N362   1.322       .  A
N361        C365   1.343       .  A
N361       Cu369   2.072       .  S
N362        C363   1.346       .  A
N362       Cu368   2.067       .  S
C363        C364   1.381       .  A
C363        H366   1.082       .  S
C364        C365   1.382       .  A
C365        H367   1.082       .  S
Cu368       N371   2.068       .  S
Cu369       N379   2.072       .  S
Cu370       N372   2.070       .  S
Cu370       N378   2.070       .  S
N371        N372   1.322       .  A
N371        C375   1.344       .  A
N372        C373   1.345       .  A
C373        C374   1.382       .  A
C373        H376   1.082       .  S
C374        C375   1.382       .  A
C375        H377   1.082       .  S
N378        N379   1.323       .  A
N378        C382   1.345       .  A
N379        C380   1.345       .  A
C380        C381   1.379       .  A
C380        H383   1.082       .  S
C381        C382   1.379       .  A
C381        C385   1.435       .  S
C382        H384   1.082       .  S
C385        C386   1.205       .  T
C387        C388   1.204       .  T
C389        C390   1.204       .  T
C391        C392   1.204       .  T
C393        C394   1.206       .  T
C395        C396   1.207       .  T
C397        C398   1.205       .  T
C399        C400   1.206       .  T
