geometry optimzed in LAMMPS
_audit_creation_date              2020-12-01 
_audit_creation_method            'lammps2cif' 
_symmetry_space_group_name_H-M    'P1' 
_symmetry_Int_Tables_number       1 
_symmetry_cell_setting            triclinic 
loop_ 
_symmetry_equiv_pos_as_xyz 
  x,y,z 
_cell_length_a                    66.13548061 
_cell_length_b                    66.13726145495856 
_cell_length_c                    66.13467124851789 
_cell_angle_alpha                 90.00370385178846 
_cell_angle_beta                  90.0043469809741 
_cell_angle_gamma                 89.99878140501244 
loop_ 
_atom_site_label 
_atom_site_type_symbol 
_atom_site_fract_x 
_atom_site_fract_y 
_atom_site_fract_z 
_atom_site_charge 
N1          N  0.42132752  0.37807342  0.09701484    -0.25700
N2          N  0.40315104  0.37193778  0.10267689    -0.33600
C3          C  0.39066815  0.37242505  0.08660340     0.02600
C4          C  0.40158077  0.37917402  0.07014462     0.08600
C5          C  0.42090923  0.38263508  0.07719328    -0.04500
H6          H  0.37483341  0.36834358  0.08694781     0.09300
H7          H  0.43369980  0.38819827  0.06861944     0.10500
Cu8        Cu  0.39618974  0.36372928  0.13213133     0.44200
Cu9        Cu  0.44577242  0.38029836  0.11657659     0.42000
Cu10       Cu  0.43719373  0.36792551  0.16895269     0.43900
N11         N  0.39310661  0.35749893  0.16270887    -0.33100
N12         N  0.40795743  0.35908952  0.17603969    -0.27400
C13         C  0.40085643  0.35429031  0.19447645    -0.03500
C14         C  0.38067322  0.34946966  0.19256601     0.08800
C15         C  0.37616454  0.35164366  0.17232789     0.02600
H16         H  0.40972199  0.35443619  0.20823251     0.10200
H17         H  0.36165926  0.34930686  0.16512389     0.09300
N18         N  0.46497519  0.37728694  0.15782196    -0.34600
N19         N  0.46809083  0.38181670  0.13859103    -0.26700
C20         C  0.48742855  0.38766528  0.13620333    -0.02000
C21         C  0.49683516  0.38672661  0.15480172     0.06600
C22         C  0.48225664  0.38012820  0.16820047     0.04700
H23         H  0.49404830  0.39245890  0.12202075     0.09800
H24         H  0.48397804  0.37778565  0.18429900     0.08700
N25         N  0.36618899  0.17530159  0.44643351    -0.25700
N26         N  0.36164891  0.19452894  0.44331407    -0.33600
C27         C  0.36449299  0.20491334  0.46059110     0.02600
C28         C  0.37110395  0.19152185  0.47517115     0.08600
C29         C  0.37204775  0.17292140  0.46577017    -0.04500
H30         H  0.36215160  0.22101155  0.46230611     0.09300
H31         H  0.37685809  0.15874558  0.47239016     0.10500
Cu32       Cu  0.35229862  0.20565217  0.41552654     0.44200
Cu33       Cu  0.36469284  0.15328987  0.42411276     0.42000
Cu34       Cu  0.34823157  0.16884844  0.37448932     0.43900
N35         N  0.34353943  0.21274694  0.38626940    -0.33100
N36         N  0.34199995  0.19942532  0.37140521    -0.27400
C37         C  0.33620226  0.20905476  0.35444829    -0.03500
C38         C  0.33401225  0.22928933  0.35896190     0.08800
C39         C  0.33876378  0.23118718  0.37916282     0.02600
H40         H  0.33391937  0.20186079  0.33992894     0.10200
H41         H  0.33888464  0.24493836  0.38803596     0.09300
N42         N  0.35644270  0.13939806  0.38146528    -0.34600
N43         N  0.36253766  0.13373627  0.39965675    -0.26700
C44         C  0.36712724  0.11392200  0.39924330    -0.02000
C45         C  0.36372719  0.10687677  0.37990311     0.06600
C46         C  0.35698457  0.12333052  0.36897778     0.04700
H47         H  0.37267450  0.10535122  0.41204570     0.09800
H48         H  0.35294989  0.12367708  0.35312966     0.08700
C49         C  0.29125377  0.33465489  0.28963671     0.81800
N50         N  0.30339776  0.33863591  0.27359269    -0.76500
C51         C  0.31946308  0.32650851  0.26963834     0.84200
N52         N  0.32341805  0.31043700  0.28175512    -0.76500
C53         C  0.31126912  0.30646189  0.29779826     0.84300
N54         N  0.29520295  0.31858486  0.30175852    -0.78200
N55         N  0.11860340  0.43673519  0.34077438    -0.25700
N56         N  0.12424860  0.41854241  0.33467037    -0.33600
C57         C  0.10816171  0.40607956  0.33517069     0.02600
C58         C  0.09171209  0.41702305  0.34189516     0.08600
C59         C  0.09878009  0.43634818  0.34532851    -0.04500
H60         H  0.10849308  0.39023590  0.33112503     0.09300
H61         H  0.09022005  0.44915586  0.35087817     0.10500
Cu62       Cu  0.15370539  0.41152913  0.32651447     0.44200
Cu63       Cu  0.13819701  0.46114991  0.34299549     0.42000
Cu64       Cu  0.19058268  0.45247868  0.33072817     0.43900
N65         N  0.18429017  0.40838796  0.32035037    -0.33100
N66         N  0.19764009  0.42321943  0.32194609    -0.27400
C67         C  0.21607572  0.41608118  0.31719715    -0.03500
C68         C  0.21414478  0.39589387  0.31240412     0.08800
C69         C  0.19389571  0.39142123  0.31454194     0.02600
H70         H  0.22984481  0.42492435  0.31735926     0.10200
H71         H  0.18667484  0.37692375  0.31221282     0.09300
N72         N  0.17947800  0.48027947  0.34006210    -0.34600
N73         N  0.16024334  0.48342828  0.34455283    -0.26700
C74         C  0.15787789  0.50276430  0.35041565    -0.02000
C75         C  0.17649517  0.51213468  0.34952715     0.06600
C76         C  0.18988189  0.49753743  0.34294365     0.04700
H77         H  0.14370003  0.50940352  0.35519522     0.09800
H78         H  0.20599019  0.49922692  0.34064915     0.08700
N79         N  0.36620419  0.41367634  0.94652813    -0.25700
N80         N  0.36170465  0.39443949  0.94340649    -0.33600
C81         C  0.36456292  0.38406269  0.96068443     0.02600
C82         C  0.37114049  0.39746905  0.97526718     0.08600
C83         C  0.37204984  0.41607017  0.96586709    -0.04500
H84         H  0.36225618  0.36795896  0.96239757     0.09300
H85         H  0.37683182  0.43025578  0.97248857     0.10500
Cu86       Cu  0.35238801  0.38329387  0.91561589     0.44200
Cu87       Cu  0.36468088  0.43568354  0.92420729     0.42000
Cu88       Cu  0.34821903  0.42009419  0.87459529     0.43900
N89         N  0.34361556  0.37618664  0.88636573    -0.33100
N90         N  0.34203433  0.38950913  0.87150857    -0.27400
C91         C  0.33622753  0.37987522  0.85455657    -0.03500
C92         C  0.33407593  0.35963659  0.85906589     0.08800
C93         C  0.33885890  0.35774061  0.87925938     0.02600
H94         H  0.33390980  0.38706971  0.84004381     0.10200
H95         H  0.33900943  0.34398865  0.88812807     0.09300
N96         N  0.35639892  0.44955481  0.88156220    -0.34600
N97         N  0.36249584  0.45522922  0.89974961    -0.26700
C98         C  0.36706453  0.47504816  0.89932919    -0.02000
C99         C  0.36364841  0.48208246  0.87998831     0.06600
C100        C  0.35691858  0.46561778  0.86907038     0.04700
H101        H  0.37260894  0.48362902  0.91212629     0.09800
H102        H  0.35287852  0.46526056  0.85322359     0.08700
N103        N  0.16014372  0.10565626  0.84458202    -0.25700
N104        N  0.17938215  0.10878953  0.84009763    -0.33600
C105        C  0.18977210  0.09152379  0.84298025     0.02600
C106        C  0.17637280  0.07693748  0.84955787     0.08600
C107        C  0.15776197  0.08632220  0.85044218    -0.04500
H108        H  0.20587942  0.08982105  0.84068825     0.09300
H109        H  0.14357730  0.07969362  0.85521516     0.10500
Cu110      Cu  0.19051391  0.13657733  0.83076588     0.44200
Cu111      Cu  0.13811658  0.12795295  0.84301823     0.42000
Cu112      Cu  0.15368493  0.17756547  0.82656163     0.43900
N113        N  0.19760408  0.16582506  0.82198115    -0.33100
N114        N  0.18427058  0.18067187  0.82038951    -0.27400
C115        C  0.19389338  0.19762646  0.81457841    -0.03500
C116        C  0.21413646  0.19312943  0.81243437     0.08800
C117        C  0.21604639  0.17294061  0.81722659     0.02600
H118        H  0.18668832  0.21213214  0.81225166     0.10200
H119        H  0.22980540  0.16408129  0.81738463     0.09300
N120        N  0.12422243  0.17058274  0.83471855    -0.34600
N121        N  0.11855546  0.15239400  0.84081158    -0.26700
C122        C  0.09873259  0.15280276  0.84536477    -0.02000
C123        C  0.09168808  0.17213774  0.84194197     0.06600
C124        C  0.10815031  0.18306464  0.83522517     0.04700
H125        H  0.09015680  0.14000257  0.85090479     0.09800
H126        H  0.10849978  0.19890949  0.83118668     0.08700
C127        C  0.31944173  0.26251581  0.76964063     0.81800
N128        N  0.30338134  0.25038328  0.77359421    -0.76500
C129        C  0.29125842  0.25433963  0.78966048     0.84200
N130        N  0.29522349  0.27038972  0.80180504    -0.76500
C131        C  0.31128534  0.28251713  0.79784565     0.84300
N132        N  0.32341318  0.27856732  0.78178001    -0.78200
N133        N  0.46803128  0.20753450  0.63845169    -0.25700
N134        N  0.46491267  0.21206502  0.65768214    -0.33600
C135        C  0.48218870  0.20921585  0.66806570     0.02600
C136        C  0.49676811  0.20261149  0.65467098     0.08600
C137        C  0.48736738  0.20167674  0.63606880    -0.04500
H138        H  0.48390342  0.21154895  0.68416720     0.09300
H139        H  0.49398719  0.19687186  0.62188959     0.10500
Cu140      Cu  0.43712705  0.22140785  0.66880877     0.44200
Cu141      Cu  0.44570438  0.20903872  0.61644522     0.42000
Cu142      Cu  0.39607059  0.22545589  0.63202317     0.43900
N143        N  0.40787523  0.23016527  0.67591570    -0.33100
N144        N  0.39300306  0.23169711  0.66260190    -0.27400
C145        C  0.37605336  0.23750187  0.67223937    -0.03500
C146        C  0.38058098  0.23970411  0.69247056     0.08800
C147        C  0.40078191  0.23495276  0.69435841     0.02600
H148        H  0.36153094  0.23978426  0.66505313     0.10200
H149        H  0.40966478  0.23484270  0.70810387     0.09300
N150        N  0.40304568  0.21725839  0.60256644    -0.34600
N151        N  0.42124096  0.21118272  0.59689779    -0.26700
C152        C  0.42082760  0.20660296  0.57708010    -0.02000
C153        C  0.40148343  0.20998891  0.57003946     0.06600
C154        C  0.39055550  0.21671347  0.58649983     0.04700
H155        H  0.43363283  0.20107303  0.56850378     0.09800
H156        H  0.37470604  0.22073537  0.58685087     0.08700
N157        N  0.92151867  0.37789488  0.41835109    -0.25700
N158        N  0.90332974  0.37175577  0.41272916    -0.33600
C159        C  0.89088347  0.37225042  0.42882919     0.02600
C160        C  0.90183337  0.37900794  0.44526267     0.08600
C161        C  0.92114526  0.38246620  0.43817166    -0.04500
H162        H  0.87504717  0.36817375  0.42851864     0.09300
H163        H  0.93395431  0.38803970  0.44671539     0.10500
Cu164      Cu  0.89629742  0.36354925  0.38328721     0.44200
Cu165      Cu  0.94591481  0.38012773  0.39873557     0.42000
Cu166      Cu  0.93720154  0.36778370  0.34637239     0.43900
N167        N  0.89313376  0.35734221  0.35271011    -0.33100
N168        N  0.90795174  0.35894621  0.33934698    -0.27400
C169        C  0.90080670  0.35416647  0.32092110    -0.03500
C170        C  0.88062840  0.34934488  0.32287068     0.08800
C171        C  0.87616795  0.35149758  0.34312205     0.02600
H172        H  0.90963924  0.35432846  0.30714478     0.10200
H173        H  0.86167966  0.34915534  0.35035531     0.09300
N174        N  0.96500420  0.37715923  0.35743799    -0.34600
N175        N  0.96816955  0.38167711  0.37666461    -0.26700
C176        C  0.98750621  0.38754825  0.37900515    -0.02000
C177        C  0.99685937  0.38663724  0.36038019     0.06600
C178        C  0.98225144  0.38003133  0.34701489     0.04700
H179        H  0.99415979  0.39234234  0.39317326     0.09800
H180        H  0.98392839  0.37770799  0.33090821     0.08700
N181        N  0.86259470  0.13387109  0.11538319    -0.25700
N182        N  0.85647743  0.13949478  0.13357849    -0.33600
C183        C  0.85695539  0.12339022  0.14601848     0.02600
C184        C  0.86367894  0.10695163  0.13505768     0.08600
C185        C  0.86713504  0.11404444  0.11574609    -0.04500
H186        H  0.85289037  0.12370098  0.16185858     0.09300
H187        H  0.87268716  0.10549700  0.10292921     0.10500
Cu188      Cu  0.84832091  0.16894386  0.14062305     0.44200
Cu189      Cu  0.86484132  0.15349566  0.09099642     0.42000
Cu190      Cu  0.85257962  0.20587335  0.09973153     0.43900
N191        N  0.84214530  0.19952256  0.14379890    -0.33100
N192        N  0.84375746  0.21289178  0.12898747    -0.27400
C193        C  0.83899141  0.23131644  0.13614284    -0.03500
C194        C  0.83417026  0.22935812  0.15632080     0.08800
C195        C  0.83630890  0.20910430  0.16076991     0.02600
H196        H  0.83915946  0.24509585  0.12731770     0.10200
H197        H  0.83395979  0.20186391  0.17525425     0.09300
N198        N  0.86193455  0.19480428  0.07192420    -0.34600
N199        N  0.86642240  0.17557299  0.06875095    -0.26700
C200        C  0.87229110  0.17323203  0.04941361    -0.02000
C201        C  0.87140945  0.19186192  0.04006864     0.06600
C202        C  0.86482349  0.20523030  0.05468156     0.04700
H203        H  0.87706427  0.15906096  0.04275482     0.09800
H204        H  0.86252633  0.22134001  0.05301157     0.08700
C205        C  0.81940806  0.32643610  0.24578014     0.81800
N206        N  0.82338560  0.31037024  0.23366167    -0.76500
C207        C  0.81126087  0.30639662  0.21759758     0.84200
N208        N  0.79519732  0.31851666  0.21361709    -0.76500
C209        C  0.79122583  0.33458170  0.22573977     0.84300
N210        N  0.80334565  0.33856115  0.24180505    -0.78200
N211        N  0.61867756  0.43667614  0.17423842    -0.25700
N212        N  0.62430526  0.41848811  0.18037222    -0.33600
C213        C  0.60820880  0.40603665  0.17987710     0.02600
C214        C  0.59177089  0.41698153  0.17312438     0.08600
C215        C  0.59885627  0.43629640  0.16966986    -0.04500
H216        H  0.60852415  0.39020051  0.18395277     0.09300
H217        H  0.59030742  0.44910389  0.16410280     0.10500
Cu218      Cu  0.65374934  0.41146610  0.18857724     0.44200
Cu219      Cu  0.63828825  0.46108003  0.17201025     0.42000
Cu220      Cu  0.69065482  0.45238463  0.18434646     0.43900
N221        N  0.68432642  0.40831562  0.19478740    -0.33100
N222        N  0.69768618  0.42313707  0.19318502    -0.27400
C223        C  0.71611308  0.41599721  0.19796738    -0.03500
C224        C  0.71416682  0.39581892  0.20278916     0.08800
C225        C  0.69391721  0.39135352  0.20063389     0.02600
H226        H  0.72988670  0.42483282  0.19780794     0.10200
H227        H  0.68668629  0.37686346  0.20297655     0.09300
N228        N  0.67958460  0.48018011  0.17495768    -0.34600
N229        N  0.66035679  0.48333976  0.17044252    -0.26700
C230        C  0.65801336  0.50267292  0.16456195    -0.02000
C231        C  0.67663773  0.51202968  0.16546424     0.06600
C232        C  0.69000560  0.49742717  0.17207482     0.04700
H233        H  0.64384371  0.50932213  0.15976977     0.09800
H234        H  0.70611086  0.49910806  0.17439606     0.08700
N235        N  0.93988722  0.93661611  0.17409932    -0.25700
N236        N  0.93424149  0.91843622  0.18023826    -0.33600
C237        C  0.95032701  0.90596983  0.17975638     0.02600
C238        C  0.96677633  0.91689743  0.17300753     0.08600
C239        C  0.95970946  0.93621702  0.16954096    -0.04500
H240        H  0.94999724  0.89013637  0.18384123     0.09300
H241        H  0.96827158  0.94901478  0.16397504     0.10500
Cu242      Cu  0.90479098  0.91145145  0.18844196     0.44200
Cu243      Cu  0.92030043  0.96103599  0.17185781     0.42000
Cu244      Cu  0.86792374  0.95240178  0.18418024     0.43900
N245        N  0.87421448  0.90833905  0.19466168    -0.33100
N246        N  0.86086750  0.92317119  0.19304636    -0.27400
C247        C  0.84243624  0.91605455  0.19784193    -0.03500
C248        C  0.84436731  0.89588027  0.20268607     0.08800
C249        C  0.86461140  0.89139291  0.20053008     0.02600
H250        H  0.82867055  0.92490297  0.19767668     0.10200
H251        H  0.87183009  0.87689896  0.20288674     0.09300
N252        N  0.87902693  0.98018289  0.17479714    -0.34600
N253        N  0.89825872  0.98332000  0.17028729    -0.26700
C254        C  0.90062724  0.00265313  0.16441868    -0.02000
C255        C  0.88201488  0.01203304  0.16532381     0.06600
C256        C  0.86862802  0.99744501  0.17192328     0.04700
H257        H  0.91480612  0.00928760  0.15963670     0.09800
H258        H  0.85252547  0.99914699  0.17424698     0.08700
N259        N  0.69619621  0.63380249  0.11540717    -0.25700
N260        N  0.70228680  0.63944329  0.13360694    -0.33600
C261        C  0.70179463  0.62334950  0.14606052     0.02600
C262        C  0.69508983  0.60689939  0.13510433     0.08600
C263        C  0.69165924  0.61397512  0.11578085    -0.04500
H264        H  0.70583316  0.62367621  0.16190784     0.09300
H265        H  0.68612178  0.60541694  0.10296472     0.10500
Cu266      Cu  0.71041910  0.66890277  0.14063912     0.44200
Cu267      Cu  0.69396521  0.65341045  0.09100369     0.42000
Cu268      Cu  0.70616865  0.70580378  0.09971796     0.43900
N269        N  0.71658393  0.69948569  0.14379627    -0.33100
N270        N  0.71497619  0.71284395  0.12897408    -0.27400
C271        C  0.71973233  0.73127492  0.13611969    -0.03500
C272        C  0.72454238  0.72933221  0.15630234     0.08800
C273        C  0.72240739  0.70908119  0.16076463     0.02600
H274        H  0.71956294  0.74504876  0.12728488     0.10200
H275        H  0.72474855  0.70185228  0.17525627     0.09300
N276        N  0.69682621  0.69471417  0.07191333    -0.34600
N277        N  0.69236268  0.67547619  0.06874671    -0.26700
C278        C  0.68648917  0.67312238  0.04941142    -0.02000
C279        C  0.68734181  0.69175086  0.04006078     0.06600
C280        C  0.69391578  0.70513173  0.05466861     0.04700
H281        H  0.68172708  0.65894435  0.04275930     0.09800
H282        H  0.69618616  0.72124487  0.05299491     0.08700
C283        C  0.74734367  0.80641857  0.21755770     0.81800
N284        N  0.73521741  0.81038240  0.23362117    -0.76500
C285        C  0.73917598  0.82645868  0.24573221     0.84200
N286        N  0.75522065  0.83860327  0.24175101    -0.76500
C287        C  0.76734122  0.83463346  0.22568613     0.84300
N288        N  0.76338927  0.81855827  0.21357067    -0.78200
N289        N  0.63725775  0.87787604  0.41839207    -0.25700
N290        N  0.65544856  0.87176536  0.41274688    -0.33600
C291        C  0.66792242  0.87229975  0.42882645     0.02600
C292        C  0.65698855  0.87905406  0.44527065     0.08600
C293        C  0.63765769  0.88246858  0.43820715    -0.04500
H294        H  0.68376552  0.86824981  0.42849516     0.09300
H295        H  0.62485270  0.88802435  0.44676626     0.10500
Cu296      Cu  0.66244189  0.86353783  0.38330251     0.44200
Cu297      Cu  0.61281776  0.88003981  0.39881810     0.42000
Cu298      Cu  0.62143545  0.86760627  0.34646687     0.43900
N299        N  0.66554737  0.85729732  0.35272717    -0.33100
N300        N  0.65069297  0.85883808  0.33939457    -0.27400
C301        C  0.65780907  0.85405522  0.32095944    -0.03500
C302        C  0.67800627  0.84929744  0.32287161     0.08800
C303        C  0.68250806  0.85149109  0.34310964     0.02600
H304        H  0.64894437  0.85417351  0.30720238     0.10200
H305        H  0.69702111  0.84920316  0.35031399     0.09300
N306        N  0.59364595  0.87697522  0.35756430    -0.34600
N307        N  0.59051435  0.88153071  0.37678700    -0.26700
C308        C  0.57117972  0.88740167  0.37914734    -0.02000
C309        C  0.56179321  0.88645010  0.36053919     0.06600
C310        C  0.57637946  0.87982148  0.34716374     0.04700
H311        H  0.56455104  0.89222700  0.39331603     0.09800
H312        H  0.57467620  0.87747062  0.33106401     0.08700
N313        N  0.92151853  0.21147858  0.91833063    -0.25700
N314        N  0.90332458  0.21758162  0.91268682    -0.33600
C315        C  0.89086376  0.21708132  0.92877485     0.02600
C316        C  0.90180988  0.21035814  0.94522378     0.08600
C317        C  0.92113442  0.20692495  0.93815431    -0.04500
H318        H  0.87501920  0.22112610  0.92844464     0.09300
H319        H  0.93394316  0.20137542  0.94671323     0.10500
Cu320      Cu  0.89630661  0.22573573  0.88323053     0.44200
Cu321      Cu  0.94592871  0.20925471  0.89873312     0.42000
Cu322      Cu  0.93722847  0.22149417  0.84633836     0.43900
N323        N  0.89314936  0.23189511  0.85264674    -0.33100
N324        N  0.90797234  0.23028757  0.83928955    -0.27400
C325        C  0.90082592  0.23503142  0.82085544    -0.03500
C326        C  0.88064181  0.23983375  0.82279550     0.08800
C327        C  0.87617945  0.23770683  0.84304792     0.02600
H328        H  0.90966116  0.23485860  0.80708126     0.10200
H329        H  0.86168690  0.24004388  0.85027514     0.09300
N330        N  0.96502762  0.21214991  0.85743466    -0.34600
N331        N  0.96818807  0.20767051  0.87667060    -0.26700
C332        C  0.98752144  0.20179458  0.87902540    -0.02000
C333        C  0.99687701  0.20266280  0.86040015     0.06600
C334        C  0.98227476  0.20924809  0.84701976     0.04700
H335        H  0.99416896  0.19701972  0.89320238     0.09800
H336        H  0.98395324  0.21153041  0.83090822     0.08700
N337        N  0.66006948  0.10572609  0.67075088    -0.25700
N338        N  0.67930033  0.10886107  0.67526884    -0.33600
C339        C  0.68969458  0.09159240  0.67241646     0.02600
C340        C  0.67630613  0.07700094  0.66582314     0.08600
C341        C  0.65769685  0.08638701  0.66489844    -0.04500
H342        H  0.70579758  0.08989090  0.67473962     0.09300
H343        H  0.64352037  0.07975576  0.66010340     0.10500
Cu344      Cu  0.69041370  0.13665783  0.68460150     0.44200
Cu345      Cu  0.63804590  0.12803437  0.67225911     0.42000
Cu346      Cu  0.65360114  0.17767878  0.68866613     0.43900
N347        N  0.69750206  0.16591320  0.69336704    -0.33100
N348        N  0.68417637  0.18077257  0.69490673    -0.27400
C349        C  0.69380022  0.19772894  0.70071544    -0.03500
C350        C  0.71403549  0.19321965  0.70291202     0.08800
C351        C  0.71593968  0.17302202  0.69815319     0.02600
H352        H  0.68660200  0.21224446  0.70300252     0.10200
H353        H  0.72969248  0.16415261  0.69803606     0.09300
N354        N  0.62414934  0.17068742  0.68046697    -0.34600
N355        N  0.61848792  0.15248827  0.67439568    -0.26700
C356        C  0.59867159  0.15289308  0.66981007    -0.02000
C357        C  0.59162468  0.17223564  0.67318774     0.06600
C358        C  0.60807971  0.18317147  0.67991319     0.04700
H359        H  0.59010086  0.14008353  0.66427954     0.09800
H360        H  0.60842566  0.19902290  0.68392793     0.08700
C361        C  0.79116861  0.25441872  0.72570169     0.81800
N362        N  0.80329216  0.25046479  0.74176980    -0.76500
C363        C  0.81935857  0.26259218  0.74571872     0.84200
N364        N  0.82333572  0.27863508  0.73357291    -0.76500
C365        C  0.81120769  0.28258319  0.71750592     0.84300
N366        N  0.79513983  0.27046079  0.71355046    -0.78200
N367        N  0.86284416  0.45519247  0.61565546    -0.25700
N368        N  0.85670725  0.44953397  0.63383267    -0.33600
C369        C  0.85720176  0.46560850  0.64631376     0.02600
C370        C  0.86395686  0.48206406  0.63539920     0.08600
C371        C  0.86741352  0.47501164  0.61607152    -0.04500
H372        H  0.85312012  0.46526733  0.66214935     0.09300
H373        H  0.87297948  0.48358229  0.60327859     0.10500
Cu374      Cu  0.84848593  0.42008065  0.64079114     0.44200
Cu375      Cu  0.86506260  0.43562708  0.59121409     0.42000
Cu376      Cu  0.85266522  0.38325652  0.59979040     0.43900
N377        N  0.84223703  0.38950572  0.64387436    -0.33100
N378        N  0.84382054  0.37617528  0.62902297    -0.27400
C379        C  0.83901184  0.35774100  0.63612188    -0.03500
C380        C  0.83419211  0.35965186  0.65630475     0.08800
C381        C  0.83637655  0.37988794  0.66081542     0.02600
H382        H  0.83915184  0.34398607  0.62725522     0.10200
H383        H  0.83404381  0.38709135  0.67532211     0.09300
N384        N  0.86205424  0.39437994  0.57201770    -0.34600
N385        N  0.86659309  0.41360812  0.56890221    -0.26700
C386        C  0.87246553  0.41598891  0.54957080    -0.02000
C387        C  0.87153273  0.39738831  0.54016931     0.06600
C388        C  0.86491305  0.38399593  0.55474318     0.04700
H389        H  0.87727228  0.43016635  0.54295341     0.09800
H390        H  0.86256961  0.36789823  0.55302425     0.08700
N391        N  0.59031601  0.70761430  0.87679025    -0.25700
N392        N  0.59345027  0.71210204  0.85755243    -0.33600
C393        C  0.57618485  0.70921740  0.84715998     0.02600
C394        C  0.56159768  0.70263502  0.86055661     0.08600
C395        C  0.57098212  0.70175024  0.87916843    -0.04500
H396        H  0.57448272  0.71151144  0.83105190     0.09300
H397        H  0.56435277  0.69697381  0.89335264     0.10500
Cu398      Cu  0.62123992  0.72144092  0.84642512     0.44200
Cu399      Cu  0.61261122  0.70917760  0.89882256     0.42000
Cu400      Cu  0.66222250  0.72564325  0.88325544     0.43900
N401        N  0.65048888  0.73022851  0.83933388    -0.33100
N402        N  0.66533502  0.73182032  0.85266951    -0.27400
C403        C  0.68229131  0.73763115  0.84304842    -0.03500
C404        C  0.67779663  0.73977477  0.82280369     0.08800
C405        C  0.65760672  0.73498248  0.82089192     0.02600
H406        H  0.69679704  0.73995697  0.85025546     0.10200
H407        H  0.64874818  0.73482323  0.80713105     0.09300
N408        N  0.65524351  0.71747701  0.91271822    -0.34600
N409        N  0.63705512  0.71138153  0.91838507    -0.26700
C410        C  0.63746771  0.70681947  0.93820647    -0.02000
C411        C  0.65680496  0.71023854  0.94525059     0.06600
C412        C  0.66772898  0.71696284  0.92878896     0.04700
H413        H  0.62466911  0.70127434  0.94678116     0.09800
H414        H  0.68357408  0.72099991  0.92843871     0.08700
N415        N  0.69224565  0.91372157  0.56889760    -0.25700
N416        N  0.69677721  0.89449157  0.57201345    -0.33600
C417        C  0.69392723  0.88411129  0.55473495     0.02600
C418        C  0.68732081  0.89750794  0.54015768     0.08600
C419        C  0.68638627  0.91610738  0.54956174    -0.04500
H420        H  0.69626353  0.86801284  0.55301654     0.09300
H421        H  0.68158394  0.93028706  0.54294365     0.10500
Cu422      Cu  0.70613020  0.88335877  0.59979615     0.44200
Cu423      Cu  0.69376081  0.93573082  0.59122029     0.42000
Cu424      Cu  0.71022385  0.92015111  0.64083321     0.43900
N425        N  0.71490876  0.87625404  0.62904482    -0.33100
N426        N  0.71645814  0.88957252  0.64391068    -0.27400
C427        C  0.72227294  0.87993991  0.66086012    -0.03500
C428        C  0.72446358  0.85970653  0.65634002     0.08800
C429        C  0.71969449  0.85781286  0.63614265     0.02600
H430        H  0.72456883  0.88713139  0.67537933     0.10200
H431        H  0.71957032  0.84406429  0.62726580     0.09300
N432        N  0.70203558  0.94961194  0.63386637    -0.34600
N433        N  0.69594301  0.95528189  0.61567670    -0.26700
C434        C  0.69137438  0.97510110  0.61609276    -0.02000
C435        C  0.69478475  0.98214183  0.63543298     0.06600
C436        C  0.70151215  0.96567929  0.64635569     0.04700
H437        H  0.68583292  0.98367846  0.60329214     0.09800
H438        H  0.70554891  0.96532700  0.66220272     0.08700
C439        C  0.73904747  0.76254302  0.74570417     0.81800
N440        N  0.73509931  0.77860418  0.73357143    -0.76500
C441        C  0.74724301  0.78255225  0.71751770     0.84200
N442        N  0.76329732  0.77041180  0.71356254    -0.76500
C443        C  0.76723968  0.75435138  0.72569975     0.84300
N444        N  0.75510102  0.75039805  0.74175495    -0.78200
N445        N  0.93995987  0.65252122  0.67439031    -0.25700
N446        N  0.93427524  0.67070716  0.68047878    -0.33600
C447        C  0.95032880  0.68321172  0.67994034     0.02600
C448        C  0.96679783  0.67230294  0.67320673     0.08600
C449        C  0.95977577  0.65295495  0.66980848    -0.04500
H450        H  0.94996267  0.69905837  0.68397188     0.09300
H451        H  0.96836326  0.64016125  0.66426869     0.10500
Cu452      Cu  0.90481427  0.67765245  0.68867861     0.44200
Cu453      Cu  0.92043278  0.62804542  0.67223440     0.42000
Cu454      Cu  0.86804780  0.63659372  0.68458584     0.43900
N455        N  0.87423278  0.68071523  0.69489791    -0.33100
N456        N  0.86092169  0.66584417  0.69334722    -0.27400
C457        C  0.84247519  0.67293700  0.69812373    -0.03500
C458        C  0.84435902  0.69313602  0.70288781     0.08800
C459        C  0.86459125  0.69766225  0.70070398     0.05800
H460        H  0.82873063  0.66405523  0.69799982     0.10200
H461        H  0.87177608  0.71218252  0.70300064     0.09300
N462        N  0.87920570  0.60881227  0.67525201    -0.34600
N463        N  0.89844030  0.60570752  0.67073021    -0.26700
C464        C  0.90084270  0.58637259  0.66487709    -0.02000
C465        C  0.88224981  0.57695635  0.66580462     0.06600
C466        C  0.86883923  0.59152642  0.67240090     0.04700
H467        H  0.91502906  0.57976421  0.66007864     0.09800
H468        H  0.85273971  0.58979902  0.67472576     0.08700
N469        N  0.39847495  0.98331375  0.34455148    -0.25700
N470        N  0.37924474  0.98018091  0.34002931    -0.33600
C471        C  0.36885053  0.99744842  0.34288693     0.02600
C472        C  0.38223868  0.01203624  0.34948786     0.08600
C473        C  0.40084739  0.00265007  0.35041182    -0.04500
H474        H  0.35274791  0.99915150  0.34056177     0.09300
H475        H  0.41502350  0.00927941  0.35521049     0.10500
Cu476      Cu  0.36813147  0.95239028  0.33068213     0.44200
Cu477      Cu  0.42050124  0.96101125  0.34303049     0.42000
Cu478      Cu  0.40495736  0.91138290  0.32656841     0.43900
N479        N  0.36104866  0.92313859  0.32190345    -0.33100
N480        N  0.37437743  0.90828365  0.32034652    -0.27400
C481        C  0.36475330  0.89132775  0.31453603    -0.03500
C482        C  0.34451511  0.89583348  0.31235614     0.08800
C483        C  0.34260963  0.91602777  0.31712699     0.02600
H484        H  0.37195298  0.87681491  0.31223767     0.10200
H485        H  0.32885415  0.92489358  0.31726037     0.09300
N486        N  0.43441388  0.91837886  0.33475107    -0.34600
N487        N  0.44007001  0.93657214  0.34084472    -0.26700
C488        C  0.45988996  0.93617219  0.34541482    -0.02000
C489        C  0.46694527  0.91683874  0.34200331     0.06600
C490        C  0.45049116  0.90590331  0.33527452     0.04700
H491        H  0.46845668  0.94897765  0.35096004     0.09800
H492        H  0.45015050  0.89005650  0.33124010     0.08700
N493        N  0.13722440  0.87795831  0.09700377    -0.25700
N494        N  0.15540818  0.87185059  0.10267554    -0.33600
C495        C  0.16789899  0.87236633  0.08661126     0.02600
C496        C  0.15698311  0.87910533  0.07014899     0.08600
C497        C  0.13764532  0.88253075  0.07718534    -0.04500
H498        H  0.18374064  0.86831238  0.08696475     0.09300
H499        H  0.12484994  0.88807789  0.06860556     0.10500
Cu500      Cu  0.16236612  0.86364738  0.13213141     0.44200
Cu501      Cu  0.11276690  0.88013632  0.11654830     0.42000
Cu502      Cu  0.12133298  0.86778656  0.16892856     0.43900
N503        N  0.16543938  0.85742895  0.16271111    -0.33100
N504        N  0.15057941  0.85899809  0.17603214    -0.27400
C505        C  0.15767930  0.85421438  0.19447416    -0.03500
C506        C  0.17787103  0.84942663  0.19257681     0.08800
C507        C  0.18238637  0.85160352  0.17234173     0.02600
H508        H  0.14880674  0.85434851  0.20822497     0.10200
H509        H  0.19689862  0.84928877  0.16514767     0.09300
N510        N  0.09354842  0.87711876  0.15778055    -0.34600
N511        N  0.09043723  0.88163977  0.13854655    -0.26700
C512        C  0.07109979  0.88748606  0.13614802    -0.02000
C513        C  0.06168916  0.88655485  0.15474310     0.06600
C514        C  0.07626441  0.87996342  0.16815088     0.04700
H515        H  0.06448556  0.89228032  0.12196268     0.09800
H516        H  0.07454121  0.87763536  0.18425106     0.08700
C517        C  0.24729270  0.80651065  0.29783487     0.81800
N518        N  0.26336762  0.81862655  0.30178102    -0.76500
C519        C  0.26732128  0.83468402  0.28964486     0.84200
N520        N  0.25517328  0.83865967  0.27360085    -0.76500
C521        C  0.23909966  0.82653894  0.26966088     0.84300
N522        N  0.23514023  0.81047978  0.28179129    -0.78200
N523        N  0.19233997  0.67541623  0.44652841    -0.25700
N524        N  0.19683118  0.69465204  0.44339161    -0.33600
C525        C  0.19394774  0.70504818  0.46065444     0.02600
C526        C  0.18736225  0.69165590  0.47524350     0.08600
C527        C  0.18647426  0.67304243  0.46586286    -0.04500
H528        H  0.19624337  0.72115473  0.46235287     0.09300
H529        H  0.18169406  0.65886236  0.47249392     0.10500
Cu530      Cu  0.20616925  0.70577373  0.41560180     0.44200
Cu531      Cu  0.19389849  0.65338456  0.42423120     0.42000
Cu532      Cu  0.21035034  0.66894895  0.37460833     0.43900
N533        N  0.21495379  0.71286403  0.38635357    -0.33100
N534        N  0.21653819  0.69953194  0.37150400    -0.27400
C535        C  0.22235096  0.70915482  0.35454973    -0.03500
C536        C  0.22450317  0.72939639  0.35904967     0.08800
C537        C  0.21971419  0.73130519  0.37924015     0.02600
H538        H  0.22467248  0.70195075  0.34004121     0.10200
H539        H  0.21956171  0.74506301  0.38810202     0.09300
N540        N  0.20218018  0.63949009  0.38159267    -0.34600
N541        N  0.19609004  0.63382411  0.39978348    -0.26700
C542        C  0.19152651  0.61400359  0.39937210    -0.02000
C543        C  0.19493900  0.60695947  0.38003374     0.06600
C544        C  0.20166117  0.62341994  0.36910806     0.04700
H545        H  0.18598643  0.60542855  0.41217341     0.09800
H546        H  0.20569590  0.62376949  0.35326028     0.08700
N547        N  0.19233141  0.91369339  0.94655659    -0.25700
N548        N  0.19684558  0.89446004  0.94343386    -0.33600
C549        C  0.19399592  0.88407970  0.96071016     0.02600
C550        C  0.18740865  0.89748017  0.97529250     0.08600
C551        C  0.18648424  0.91608142  0.96589472    -0.04500
H552        H  0.19631510  0.86797793  0.96242225     0.09300
H553        H  0.18169195  0.93026287  0.97251699     0.10500
Cu554      Cu  0.20616742  0.88331931  0.91564591     0.44200
Cu555      Cu  0.19383819  0.93570522  0.92424146     0.42000
Cu556      Cu  0.21029326  0.92012840  0.87463173     0.43900
N557        N  0.21492607  0.87622072  0.88639205    -0.33100
N558        N  0.21649065  0.88954654  0.87153653    -0.27400
C559        C  0.22228784  0.87991776  0.85457911    -0.03500
C560        C  0.22445073  0.85967907  0.85908354     0.08800
C561        C  0.21968423  0.85777764  0.87927956     0.02600
H562        H  0.22459053  0.88711543  0.84006624     0.10200
H563        H  0.21954464  0.84402383  0.88814556     0.09300
N564        N  0.20209728  0.94958463  0.88159867    -0.34600
N565        N  0.19600263  0.95525447  0.89978724    -0.26700
C566        C  0.19142225  0.97507074  0.89936951    -0.02000
C567        C  0.19482821  0.98210828  0.88002893     0.06600
C568        C  0.20156442  0.96564831  0.86910821     0.04700
H569        H  0.18587785  0.98364796  0.91216899     0.09800
H570        H  0.20560102  0.96529503  0.85326137     0.08700
N571        N  0.09036256  0.70767013  0.63850029    -0.25700
N572        N  0.09349869  0.71217167  0.65773552    -0.33600
C573        C  0.07622796  0.70932024  0.66812487     0.02600
C574        C  0.06163418  0.70274560  0.65472907     0.08600
C575        C  0.07102079  0.70183014  0.63612062    -0.04500
H576        H  0.07452674  0.71163055  0.68423053     0.09300
H577        H  0.06438771  0.69704788  0.62193853     0.10500
Cu578      Cu  0.12129699  0.72148413  0.66886395     0.44200
Cu579      Cu  0.11266984  0.70918238  0.61647796     0.42000
Cu580      Cu  0.16230532  0.72559158  0.63205441     0.43900
N581        N  0.15055078  0.73025030  0.67596064    -0.33100
N582        N  0.16540631  0.73180699  0.66263381    -0.27400
C583        C  0.18236250  0.73761585  0.67225919    -0.03500
C584        C  0.17785723  0.73979492  0.69249707     0.08800
C585        C  0.15766200  0.73502548  0.69440092     0.02600
H586        H  0.19687488  0.73991672  0.66505979     0.10200
H587        H  0.14879515  0.73489608  0.70815531     0.09300
N588        N  0.15532056  0.71741219  0.60259560    -0.34600
N589        N  0.13712458  0.71133904  0.59692501    -0.26700
C590        C  0.13753525  0.70676633  0.57710543    -0.02000
C591        C  0.15687893  0.71015458  0.57006694     0.06600
C592        C  0.16780854  0.71687243  0.58652965     0.04700
H593        H  0.12473043  0.70123645  0.56852776     0.09800
H594        H  0.18365941  0.72089010  0.58688359     0.08700
C595        C  0.23904648  0.76256282  0.76965008     0.81800
N596        N  0.25509489  0.75041534  0.77361264    -0.76500
C597        C  0.26721599  0.75436186  0.78968490     0.84200
N598        N  0.26326089  0.77041689  0.80182579    -0.76500
C599        C  0.24721137  0.78255897  0.79785731     0.84300
N600        N  0.23508543  0.77861896  0.78178627    -0.78200
N601        N  0.43989771  0.65240635  0.84094498    -0.25700
N602        N  0.43423333  0.67059410  0.83484492    -0.33600
C603        C  0.45030149  0.68308012  0.83537533     0.02600
C604        C  0.46675906  0.67215774  0.84211573     0.08600
C605        C  0.45971519  0.65282015  0.84552647    -0.04500
H606        H  0.44995285  0.69892499  0.83133471     0.09300
H607        H  0.46828808  0.64002150  0.85107432     0.10500
Cu608      Cu  0.40477696  0.67756853  0.82664738     0.44200
Cu609      Cu  0.42033864  0.62795822  0.84311477     0.42000
Cu610      Cu  0.36795369  0.63657144  0.83077822     0.43900
N611        N  0.37419326  0.68067816  0.82045464    -0.33100
N612        N  0.36086179  0.66582772  0.82202151    -0.27400
C613        C  0.34242026  0.67294561  0.81726339    -0.03500
C614        C  0.34432792  0.69313996  0.81249454     0.08800
C615        C  0.36456955  0.69763780  0.81465597     0.02600
H616        H  0.32866295  0.66408341  0.81740199     0.10200
H617        H  0.37177267  0.71214653  0.81234880     0.09300
N618        N  0.37908483  0.60877853  0.84009864    -0.34600
N619        N  0.39831730  0.60564930  0.84461540    -0.26700
C620        C  0.40069734  0.58631067  0.85046266    -0.02000
C621        C  0.38209205  0.57691891  0.84953606     0.06600
C622        C  0.36869756  0.59150605  0.84294712     0.04700
H623        H  0.41487631  0.57968412  0.85525838     0.09800
H624        H  0.35259423  0.58980001  0.84062760     0.08700
C625        C  0.28415015  0.74150938  0.79391558    -0.16900
C626        C  0.29829785  0.73068858  0.79771037     0.07100
C627        C  0.31466049  0.71789104  0.80250762     0.09000
C628        C  0.32837070  0.70674432  0.80691633    -0.17800
C629        C  0.19145838  0.74537853  0.70845621    -0.16900
C630        C  0.20260313  0.74978479  0.72216975     0.07100
C631        C  0.21539681  0.75457119  0.73853958     0.09000
C632        C  0.22621033  0.75835147  0.75269767    -0.17800
C633        C  0.23001964  0.84371822  0.84548067    -0.16900
C634        C  0.23441820  0.83000741  0.83433122     0.07100
C635        C  0.23920248  0.81364531  0.82152911     0.09000
C636        C  0.24298754  0.79949686  0.81070634    -0.17800
C637        C  0.16420815  0.70682233  0.54985887    -0.16900
C638        C  0.17006539  0.70375007  0.53285556     0.07100
C639        C  0.17654422  0.69983936  0.51286680     0.09000
C640        C  0.18170033  0.69624455  0.49573930    -0.17800
C641        C  0.24306830  0.78957113  0.31068000    -0.16900
C642        C  0.23927973  0.77542263  0.32149996     0.07100
C643        C  0.23448878  0.75906182  0.33429985     0.09000
C644        C  0.23008277  0.74535333  0.34544782    -0.17800
C645        C  0.18177296  0.89290871  0.99579752    -0.16900
C646        C  0.17663335  0.88933400  0.01293296     0.07100
C647        C  0.17016706  0.88545211  0.03292968     0.09000
C648        C  0.16431439  0.88240656  0.04993823    -0.17800
C649        C  0.22623917  0.83077903  0.25273503    -0.16900
C650        C  0.21541086  0.83458381  0.23859555     0.07100
C651        C  0.20260714  0.83939689  0.22224244     0.09000
C652        C  0.19146166  0.84382316  0.20853675    -0.17800
C653        C  0.32855383  0.88223272  0.30678189    -0.16900
C654        C  0.31483230  0.87109439  0.30238799     0.07100
C655        C  0.29845033  0.85831194  0.29761806     0.09000
C656        C  0.28428258  0.84750868  0.29384924    -0.17800
C657        C  0.98699998  0.67964943  0.66987841    -0.16900
C658        C  0.00400299  0.68550817  0.66680918     0.07100
C659        C  0.02399586  0.69197545  0.66290228     0.09000
C660        C  0.04112941  0.69711301  0.65931160    -0.17800
C661        C  0.78417325  0.74149434  0.72147760    -0.16900
C662        C  0.79831807  0.73066788  0.71768690     0.07100
C663        C  0.81467789  0.71786618  0.71288911     0.09000
C664        C  0.82838988  0.70672314  0.70847570    -0.17800
C665        C  0.73005173  0.84374122  0.66993089    -0.16900
C666        C  0.73446050  0.83002362  0.68106826     0.07100
C667        C  0.73924934  0.81365209  0.69385755     0.09000
C668        C  0.74303135  0.79949673  0.70467251    -0.17800
C669        C  0.72619218  0.75832364  0.76263893    -0.16900
C670        C  0.71536424  0.75453910  0.77678353     0.07100
C671        C  0.70255631  0.74975224  0.79314090     0.09000
C672        C  0.69140305  0.74534984  0.80684735    -0.17800
C673        C  0.48696942  0.67948609  0.84543921    -0.16900
C674        C  0.50397555  0.68534229  0.84849987     0.07100
C675        C  0.52396837  0.69182008  0.85239385     0.09000
C676        C  0.54109919  0.69697520  0.85597573    -0.17800
C677        C  0.86724144  0.50228368  0.64272218    -0.16900
C678        C  0.87027237  0.51929921  0.64856793     0.07100
C679        C  0.87413626  0.53930406  0.65502907     0.09000
C680        C  0.87769516  0.55644511  0.66016733    -0.17800
C681        C  0.82855776  0.34370044  0.66989112    -0.16900
C682        C  0.82410852  0.32999672  0.68102816     0.07100
C683        C  0.81927282  0.31364384  0.69382191     0.09000
C684        C  0.81545430  0.29950566  0.70464517    -0.17800
C685        C  0.77422288  0.24157913  0.72147970    -0.16900
C686        C  0.76007015  0.23076228  0.71769331     0.07100
C687        C  0.74370485  0.21796586  0.71290342     0.09000
C688        C  0.72999339  0.20682036  0.70849628    -0.17800
C689        C  0.69146463  0.00235312  0.64276174    -0.16900
C690        C  0.68839741  0.01936263  0.64860531     0.07100
C691        C  0.68448886  0.03936090  0.65505878     0.09000
C692        C  0.68089467  0.05649636  0.66019032    -0.17800
C693        C  0.86701273  0.24540328  0.80685653    -0.16900
C694        C  0.85584558  0.24980141  0.79315945     0.07100
C695        C  0.84302964  0.25458458  0.77680717     0.09000
C696        C  0.83220269  0.25836881  0.76266115    -0.17800
C697        C  0.66429784  0.88238179  0.46548828    -0.16900
C698        C  0.67012820  0.88544902  0.48250292     0.07100
C699        C  0.67656965  0.88935112  0.50250691     0.09000
C700        C  0.68169368  0.89293530  0.51964735    -0.17800
C701        C  0.48715912  0.90952287  0.34533310    -0.16900
C702        C  0.50416771  0.90368257  0.34841071     0.07100
C703        C  0.52416202  0.89722642  0.35233304     0.09000
C704        C  0.54129349  0.89208980  0.35593871    -0.17800
C705        C  0.72634230  0.83069429  0.26267850    -0.16900
C706        C  0.71553489  0.83449349  0.27683459     0.07100
C707        C  0.70275007  0.83929618  0.29320469     0.09000
C708        C  0.69161001  0.84371024  0.30691791    -0.17800
C709        C  0.74311448  0.78946892  0.20472488    -0.16900
C710        C  0.73932464  0.77531909  0.19390481     0.07100
C711        C  0.73453281  0.75896485  0.18109425     0.09000
C712        C  0.73012533  0.74526827  0.16992994    -0.17800
C713        C  0.66413582  0.70692219  0.96546135    -0.16900
C714        C  0.66999841  0.70386013  0.98246514     0.07100
C715        C  0.67648953  0.69995563  0.00245157     0.09000
C716        C  0.68166038  0.69635776  0.01957428    -0.17800
C717        C  0.98700288  0.90959132  0.16973517    -0.16900
C718        C  0.00402343  0.90375755  0.16671336     0.07100
C719        C  0.02403274  0.89730911  0.16285708     0.09000
C720        C  0.04117653  0.89218076  0.15930043    -0.17800
C721        C  0.82842739  0.88227975  0.20831696    -0.16900
C722        C  0.81473437  0.87112933  0.21276472     0.07100
C723        C  0.79839290  0.85832220  0.21760204     0.09000
C724        C  0.78426121  0.84749268  0.22142622    -0.17800
C725        C  0.69179459  0.58667220  0.14239691    -0.16900
C726        C  0.68874491  0.56965588  0.14822706     0.07100
C727        C  0.68484759  0.54965603  0.15467908     0.09000
C728        C  0.68124989  0.53252408  0.15981710    -0.17800
C729        C  0.73009908  0.38219910  0.20840335    -0.16900
C730        C  0.74379337  0.37104324  0.21283990     0.07100
C731        C  0.76014398  0.35824072  0.21766748     0.09000
C732        C  0.77428776  0.34742229  0.22148543    -0.17800
C733        C  0.86695463  0.08671600  0.14233318    -0.16900
C734        C  0.86998450  0.06969096  0.14814679     0.07100
C735        C  0.87385604  0.04968017  0.15457761     0.09000
C736        C  0.87743071  0.03253842  0.15969730    -0.17800
C737        C  0.81551167  0.28945760  0.20475721    -0.16900
C738        C  0.81932269  0.27531579  0.19393386     0.07100
C739        C  0.82413983  0.25897052  0.18112094     0.09000
C740        C  0.82856716  0.24528249  0.16995393    -0.17800
C741        C  0.87706365  0.19647936  0.01957832    -0.16900
C742        C  0.88220945  0.20008362  0.00245051     0.07100
C743        C  0.88867040  0.20399095  0.98245637     0.09000
C744        C  0.89450796  0.20705042  0.96544474    -0.17800
C745        C  0.87716405  0.39281452  0.51966142    -0.16900
C746        C  0.88228979  0.38923886  0.50252058     0.07100
C747        C  0.88872849  0.38535541  0.48251320     0.09000
C748        C  0.89454891  0.38230855  0.46549245    -0.17800
C749        C  0.86700469  0.34373721  0.30693806    -0.16900
C750        C  0.85585157  0.33930891  0.29323773     0.07100
C751        C  0.84305597  0.33449280  0.27687700     0.09000
C752        C  0.83224348  0.33068370  0.26272518    -0.17800
C753        C  0.51727457  0.19697870  0.65925009    -0.16900
C754        C  0.53441001  0.19184775  0.66284501     0.07100
C755        C  0.55440652  0.18539563  0.66676295     0.09000
C756        C  0.57141443  0.17955530  0.66984429    -0.17800
C757        C  0.36699515  0.24529286  0.70843856    -0.16900
C758        C  0.35586362  0.24970616  0.72215871     0.07100
C759        C  0.34308294  0.25450395  0.73853309     0.09000
C760        C  0.33227635  0.25829486  0.75269180    -0.17800
C761        C  0.07147569  0.17946376  0.84524673    -0.16900
C762        C  0.05447086  0.18532367  0.84830079     0.07100
C763        C  0.03448457  0.19181306  0.85219910     0.09000
C764        C  0.01736233  0.19698302  0.85579442    -0.17800
C765        C  0.23009319  0.20673242  0.80685753    -0.16900
C766        C  0.24380199  0.21788119  0.80245454     0.07100
C767        C  0.26016435  0.23068066  0.79766811     0.09000
C768        C  0.27431526  0.24149880  0.79388312    -0.17800
C769        C  0.18095190  0.05643956  0.85521443    -0.16900
C770        C  0.18453759  0.03930998  0.86036647     0.07100
C771        C  0.18843822  0.01931933  0.86684129     0.09000
C772        C  0.19150309  0.00231520  0.87269709    -0.17800
C773        C  0.36696439  0.50228957  0.87265250    -0.16900
C774        C  0.37002479  0.51929377  0.86679452     0.07100
C775        C  0.37392392  0.53928539  0.86032144     0.09000
C776        C  0.37751053  0.55641694  0.85517659    -0.17800
C777        C  0.31551840  0.29945127  0.81069721    -0.16900
C778        C  0.31930916  0.31359757  0.82152130     0.07100
C779        C  0.32409855  0.32995922  0.83432283     0.09000
C780        C  0.32850134  0.34367161  0.84546928    -0.17800
C781        C  0.07149157  0.40971874  0.34520265    -0.16900
C782        C  0.05447944  0.40388098  0.34826035     0.07100
C783        C  0.03448325  0.39742270  0.35216348     0.09000
C784        C  0.01735289  0.39228218  0.35576423    -0.17800
C785        C  0.18108920  0.53262780  0.35519260    -0.16900
C786        C  0.18467587  0.54975461  0.36035579     0.07100
C787        C  0.18856928  0.56974372  0.36684313     0.09000
C788        C  0.19162521  0.58674840  0.37270469    -0.17800
C789        C  0.23008904  0.38227223  0.30683112    -0.16900
C790        C  0.24379226  0.37111376  0.30243070     0.07100
C791        C  0.26015332  0.35830948  0.29764596     0.09000
C792        C  0.27430607  0.34749185  0.29386100    -0.17800
C793        C  0.37765031  0.03253743  0.35512851    -0.16900
C794        C  0.37405485  0.04966961  0.36026763     0.07100
C795        C  0.37014120  0.06966307  0.36672906     0.09000
C796        C  0.36706478  0.08666890  0.37257636    -0.17800
C797        C  0.32844147  0.24525236  0.34536229    -0.16900
C798        C  0.32404470  0.25897013  0.33422106     0.07100
C799        C  0.31926527  0.27534507  0.32143363     0.09000
C800        C  0.31548578  0.28950664  0.31062657    -0.17800
C801        C  0.37673328  0.19610042  0.49567949    -0.16900
C802        C  0.38186294  0.19968704  0.51281770     0.07100
C803        C  0.38831524  0.20359059  0.53281788     0.09000
C804        C  0.39415766  0.20665922  0.54982812    -0.17800
C805        C  0.37678248  0.39290430  0.99577416    -0.16900
C806        C  0.38192783  0.38934121  0.01291192     0.07100
C807        C  0.38839942  0.38547832  0.03291291     0.09000
C808        C  0.39425336  0.38245169  0.04992613    -0.17800
C809        C  0.33232025  0.33075580  0.25271240    -0.16900
C810        C  0.34314426  0.33457027  0.23857308     0.07100
C811        C  0.35594250  0.33939909  0.22222085     0.09000
C812        C  0.36708406  0.34384229  0.20851830    -0.17800
C813        C  0.57153971  0.40969297  0.16983402    -0.16900
C814        C  0.55451552  0.40387418  0.16679919     0.07100
C815        C  0.53450096  0.39744507  0.16293109     0.09000
C816        C  0.51735259  0.39233422  0.15936684    -0.17800
loop_ 
_geom_bond_atom_site_label_1 
_geom_bond_atom_site_label_2 
_geom_bond_distance 
_geom_bond_site_symmetry_2 
_ccdc_geom_bond_type 
N1            N2   1.323       .  A
N1            C5   1.345       .  A
N1           Cu9   2.076       .  S
N2            C3   1.346       .  A
N2           Cu8   2.074       .  S
C3            C4   1.380       .  A
C3            H6   1.082       .  S
C4            C5   1.380       .  A
C4          C808   1.439       .  S
C5            H7   1.083       .  S
Cu8          N11   2.074       .  S
Cu9          N19   2.076       .  S
Cu10         N12   2.074       .  S
Cu10         N18   2.074       .  S
N11          N12   1.324       .  A
N11          C15   1.345       .  A
N12          C13   1.345       .  A
C13          C14   1.378       .  A
C13          H16   1.082       .  S
C14          C15   1.379       .  A
C14         C812   1.435       .  S
C15          H17   1.082       .  S
N18          N19   1.323       .  A
N18          C22   1.346       .  A
N19          C20   1.345       .  A
C20          C21   1.380       .  A
C20          H23   1.083       .  S
C21          C22   1.380       .  A
C21         C816   1.439       .  S
C22          H24   1.082       .  S
N25          N26   1.323       .  A
N25          C29   1.345       .  A
N25         Cu33   2.076       .  S
N26          C27   1.346       .  A
N26         Cu32   2.074       .  S
C27          C28   1.380       .  A
C27          H30   1.082       .  S
C28          C29   1.380       .  A
C28         C801   1.439       .  S
C29          H31   1.083       .  S
Cu32         N35   2.074       .  S
Cu33         N43   2.076       .  S
Cu34         N36   2.074       .  S
Cu34         N42   2.074       .  S
N35          N36   1.324       .  A
N35          C39   1.345       .  A
N36          C37   1.345       .  A
C37          C38   1.379       .  A
C37          H40   1.082       .  S
C38          C39   1.378       .  A
C38         C797   1.435       .  S
C39          H41   1.082       .  S
N42          N43   1.323       .  A
N42          C46   1.346       .  A
N43          C44   1.345       .  A
C44          C45   1.380       .  A
C44          H47   1.083       .  S
C45          C46   1.380       .  A
C45         C796   1.439       .  S
C46          H48   1.082       .  S
C49          N50   1.357       .  A
C49          N54   1.357       .  A
C49         C792   1.434       .  S
N50          C51   1.357       .  A
C51          N52   1.357       .  A
C51         C809   1.434       .  S
N52          C53   1.357       .  A
C53          N54   1.357       .  A
C53         C800   1.434       .  S
N55          N56   1.323       .  A
N55          C59   1.345       .  A
N55         Cu63   2.076       .  S
N56          C57   1.346       .  A
N56         Cu62   2.074       .  S
C57          C58   1.380       .  A
C57          H60   1.082       .  S
C58          C59   1.380       .  A
C58         C781   1.439       .  S
C59          H61   1.083       .  S
Cu62         N65   2.074       .  S
Cu63         N73   2.075       .  S
Cu64         N66   2.074       .  S
Cu64         N72   2.074       .  S
N65          N66   1.324       .  A
N65          C69   1.345       .  A
N66          C67   1.345       .  A
C67          C68   1.378       .  A
C67          H70   1.082       .  S
C68          C69   1.379       .  A
C68         C789   1.435       .  S
C69          H71   1.082       .  S
N72          N73   1.323       .  A
N72          C76   1.346       .  A
N73          C74   1.345       .  A
C74          C75   1.380       .  A
C74          H77   1.083       .  S
C75          C76   1.380       .  A
C75         C785   1.439       .  S
C76          H78   1.082       .  S
N79          N80   1.323       .  A
N79          C83   1.345       .  A
N79         Cu87   2.076       .  S
N80          C81   1.346       .  A
N80         Cu86   2.074       .  S
C81          C82   1.380       .  A
C81          H84   1.082       .  S
C82          C83   1.380       .  A
C82         C805   1.439       .  S
C83          H85   1.083       .  S
Cu86         N89   2.073       .  S
Cu87         N97   2.076       .  S
Cu88         N90   2.074       .  S
Cu88         N96   2.074       .  S
N89          N90   1.324       .  A
N89          C93   1.345       .  A
N90          C91   1.345       .  A
C91          C92   1.379       .  A
C91          H94   1.082       .  S
C92          C93   1.378       .  A
C92         C780   1.435       .  S
C93          H95   1.082       .  S
N96          N97   1.323       .  A
N96         C100   1.346       .  A
N97          C98   1.345       .  A
C98          C99   1.380       .  A
C98         H101   1.083       .  S
C99         C100   1.380       .  A
C99         C773   1.439       .  S
C100        H102   1.082       .  S
N103        N104   1.323       .  A
N103        C107   1.345       .  A
N103       Cu111   2.075       .  S
N104        C105   1.346       .  A
N104       Cu110   2.074       .  S
C105        C106   1.380       .  A
C105        H108   1.082       .  S
C106        C107   1.380       .  A
C106        C769   1.439       .  S
C107        H109   1.083       .  S
Cu110       N113   2.073       .  S
Cu111       N121   2.076       .  S
Cu112       N114   2.074       .  S
Cu112       N120   2.074       .  S
N113        N114   1.324       .  A
N113        C117   1.345       .  A
N114        C115   1.345       .  A
C115        C116   1.379       .  A
C115        H118   1.082       .  S
C116        C117   1.378       .  A
C116        C765   1.435       .  S
C117        H119   1.082       .  S
N120        N121   1.323       .  A
N120        C124   1.346       .  A
N121        C122   1.345       .  A
C122        C123   1.380       .  A
C122        H125   1.083       .  S
C123        C124   1.380       .  A
C123        C761   1.439       .  S
C124        H126   1.082       .  S
C127        N128   1.357       .  A
C127        N132   1.357       .  A
C127        C760   1.434       .  S
N128        C129   1.357       .  A
C129        N130   1.357       .  A
C129        C768   1.434       .  S
N130        C131   1.357       .  A
C131        N132   1.357       .  A
C131        C777   1.434       .  S
N133        N134   1.323       .  A
N133        C137   1.345       .  A
N133       Cu141   2.076       .  S
N134        C135   1.346       .  A
N134       Cu140   2.074       .  S
C135        C136   1.380       .  A
C135        H138   1.082       .  S
C136        C137   1.380       .  A
C136        C753   1.439       .  S
C137        H139   1.083       .  S
Cu140       N143   2.073       .  S
Cu141       N151   2.076       .  S
Cu142       N144   2.074       .  S
Cu142       N150   2.074       .  S
N143        N144   1.324       .  A
N143        C147   1.345       .  A
N144        C145   1.345       .  A
C145        C146   1.379       .  A
C145        H148   1.082       .  S
C146        C147   1.378       .  A
C146        C757   1.435       .  S
C147        H149   1.082       .  S
N150        N151   1.323       .  A
N150        C154   1.346       .  A
N151        C152   1.345       .  A
C152        C153   1.380       .  A
C152        H155   1.083       .  S
C153        C154   1.380       .  A
C153        C804   1.439       .  S
C154        H156   1.082       .  S
N157        N158   1.323       .  A
N157        C161   1.345       .  A
N157       Cu165   2.076       .  S
N158        C159   1.346       .  A
N158       Cu164   2.074       .  S
C159        C160   1.380       .  A
C159        H162   1.082       .  S
C160        C161   1.380       .  A
C160        C748   1.439       .  S
C161        H163   1.083       .  S
Cu164       N167   2.074       .  S
Cu165       N175   2.076       .  S
Cu166       N168   2.074       .  S
Cu166       N174   2.074       .  S
N167        N168   1.324       .  A
N167        C171   1.345       .  A
N168        C169   1.345       .  A
C169        C170   1.378       .  A
C169        H172   1.082       .  S
C170        C171   1.379       .  A
C170        C749   1.435       .  S
C171        H173   1.082       .  S
N174        N175   1.323       .  A
N174        C178   1.346       .  A
N175        C176   1.345       .  A
C176        C177   1.380       .  A
C176        H179   1.083       .  S
C177        C178   1.380       .  A
C177        C784   1.439   1_655  S
C178        H180   1.082       .  S
N181        N182   1.323       .  A
N181        C185   1.345       .  A
N181       Cu189   2.076       .  S
N182        C183   1.346       .  A
N182       Cu188   2.074       .  S
C183        C184   1.380       .  A
C183        H186   1.082       .  S
C184        C185   1.380       .  A
C184        C733   1.439       .  S
C185        H187   1.083       .  S
Cu188       N191   2.074       .  S
Cu189       N199   2.075       .  S
Cu190       N192   2.074       .  S
Cu190       N198   2.074       .  S
N191        N192   1.324       .  A
N191        C195   1.345       .  A
N192        C193   1.345       .  A
C193        C194   1.378       .  A
C193        H196   1.082       .  S
C194        C195   1.379       .  A
C194        C740   1.435       .  S
C195        H197   1.082       .  S
N198        N199   1.323       .  A
N198        C202   1.346       .  A
N199        C200   1.345       .  A
C200        C201   1.380       .  A
C200        H203   1.083       .  S
C201        C202   1.380       .  A
C201        C741   1.439       .  S
C202        H204   1.082       .  S
C205        N206   1.357       .  A
C205        N210   1.357       .  A
C205        C752   1.434       .  S
N206        C207   1.357       .  A
C207        N208   1.357       .  A
C207        C737   1.434       .  S
N208        C209   1.357       .  A
C209        N210   1.357       .  A
C209        C732   1.434       .  S
N211        N212   1.323       .  A
N211        C215   1.345       .  A
N211       Cu219   2.076       .  S
N212        C213   1.346       .  A
N212       Cu218   2.074       .  S
C213        C214   1.380       .  A
C213        H216   1.082       .  S
C214        C215   1.380       .  A
C214        C813   1.439       .  S
C215        H217   1.083       .  S
Cu218       N221   2.074       .  S
Cu219       N229   2.076       .  S
Cu220       N222   2.074       .  S
Cu220       N228   2.074       .  S
N221        N222   1.324       .  A
N221        C225   1.345       .  A
N222        C223   1.345       .  A
C223        C224   1.378       .  A
C223        H226   1.082       .  S
C224        C225   1.379       .  A
C224        C729   1.435       .  S
C225        H227   1.082       .  S
N228        N229   1.323       .  A
N228        C232   1.346       .  A
N229        C230   1.345       .  A
C230        C231   1.380       .  A
C230        H233   1.083       .  S
C231        C232   1.380       .  A
C231        C728   1.439       .  S
C232        H234   1.082       .  S
N235        N236   1.323       .  A
N235        C239   1.345       .  A
N235       Cu243   2.076       .  S
N236        C237   1.346       .  A
N236       Cu242   2.074       .  S
C237        C238   1.380       .  A
C237        H240   1.082       .  S
C238        C239   1.380       .  A
C238        C717   1.439       .  S
C239        H241   1.083       .  S
Cu242       N245   2.074       .  S
Cu243       N253   2.076       .  S
Cu244       N246   2.073       .  S
Cu244       N252   2.074       .  S
N245        N246   1.324       .  A
N245        C249   1.345       .  A
N246        C247   1.345       .  A
C247        C248   1.378       .  A
C247        H250   1.082       .  S
C248        C249   1.379       .  A
C248        C721   1.435       .  S
C249        H251   1.082       .  S
N252        N253   1.323       .  A
N252        C256   1.346       .  A
N253        C254   1.345   1_565  A
C254        C255   1.380       .  A
C254        H257   1.083       .  S
C255        C256   1.380   1_545  A
C255        C736   1.439       .  S
C256        H258   1.082       .  S
N259        N260   1.323       .  A
N259        C263   1.345       .  A
N259       Cu267   2.076       .  S
N260        C261   1.346       .  A
N260       Cu266   2.074       .  S
C261        C262   1.380       .  A
C261        H264   1.082       .  S
C262        C263   1.380       .  A
C262        C725   1.439       .  S
C263        H265   1.083       .  S
Cu266       N269   2.074       .  S
Cu267       N277   2.076       .  S
Cu268       N270   2.074       .  S
Cu268       N276   2.074       .  S
N269        N270   1.324       .  A
N269        C273   1.345       .  A
N270        C271   1.345       .  A
C271        C272   1.378       .  A
C271        H274   1.082       .  S
C272        C273   1.379       .  A
C272        C712   1.435       .  S
C273        H275   1.082       .  S
N276        N277   1.323       .  A
N276        C280   1.346       .  A
N277        C278   1.345       .  A
C278        C279   1.380       .  A
C278        H281   1.083       .  S
C279        C280   1.380       .  A
C279        C716   1.439       .  S
C280        H282   1.082       .  S
C283        N284   1.357       .  A
C283        N288   1.357       .  A
C283        C709   1.434       .  S
N284        C285   1.357       .  A
C285        N286   1.357       .  A
C285        C705   1.434       .  S
N286        C287   1.357       .  A
C287        N288   1.357       .  A
C287        C724   1.434       .  S
N289        N290   1.323       .  A
N289        C293   1.345       .  A
N289       Cu297   2.076       .  S
N290        C291   1.346       .  A
N290       Cu296   2.074       .  S
C291        C292   1.380       .  A
C291        H294   1.082       .  S
C292        C293   1.380       .  A
C292        C697   1.439       .  S
C293        H295   1.083       .  S
Cu296       N299   2.074       .  S
Cu297       N307   2.076       .  S
Cu298       N300   2.073       .  S
Cu298       N306   2.074       .  S
N299        N300   1.324       .  A
N299        C303   1.345       .  A
N300        C301   1.345       .  A
C301        C302   1.378       .  A
C301        H304   1.082       .  S
C302        C303   1.379       .  A
C302        C708   1.435       .  S
C303        H305   1.082       .  S
N306        N307   1.323       .  A
N306        C310   1.346       .  A
N307        C308   1.345       .  A
C308        C309   1.380       .  A
C308        H311   1.083       .  S
C309        C310   1.380       .  A
C309        C704   1.439       .  S
C310        H312   1.082       .  S
N313        N314   1.323       .  A
N313        C317   1.345       .  A
N313       Cu321   2.076       .  S
N314        C315   1.346       .  A
N314       Cu320   2.074       .  S
C315        C316   1.380       .  A
C315        H318   1.082       .  S
C316        C317   1.380       .  A
C316        C744   1.439       .  S
C317        H319   1.083       .  S
Cu320       N323   2.074       .  S
Cu321       N331   2.075       .  S
Cu322       N324   2.073       .  S
Cu322       N330   2.074       .  S
N323        N324   1.324       .  A
N323        C327   1.345       .  A
N324        C325   1.345       .  A
C325        C326   1.378       .  A
C325        H328   1.082       .  S
C326        C327   1.379       .  A
C326        C693   1.435       .  S
C327        H329   1.082       .  S
N330        N331   1.323       .  A
N330        C334   1.346       .  A
N331        C332   1.345       .  A
C332        C333   1.380       .  A
C332        H335   1.083       .  S
C333        C334   1.380       .  A
C333        C764   1.439   1_655  S
C334        H336   1.082       .  S
N337        N338   1.323       .  A
N337        C341   1.345       .  A
N337       Cu345   2.076       .  S
N338        C339   1.346       .  A
N338       Cu344   2.074       .  S
C339        C340   1.380       .  A
C339        H342   1.082       .  S
C340        C341   1.380       .  A
C340        C692   1.439       .  S
C341        H343   1.083       .  S
Cu344       N347   2.073       .  S
Cu345       N355   2.076       .  S
Cu346       N348   2.074       .  S
Cu346       N354   2.074       .  S
N347        N348   1.324       .  A
N347        C351   1.345       .  A
N348        C349   1.345       .  A
C349        C350   1.379       .  A
C349        H352   1.082       .  S
C350        C351   1.378       .  A
C350        C688   1.435       .  S
C351        H353   1.082       .  S
N354        N355   1.323       .  A
N354        C358   1.346       .  A
N355        C356   1.345       .  A
C356        C357   1.380       .  A
C356        H359   1.083       .  S
C357        C358   1.380       .  A
C357        C756   1.439       .  S
C358        H360   1.082       .  S
C361        N362   1.357       .  A
C361        N366   1.357       .  A
C361        C685   1.434       .  S
N362        C363   1.357       .  A
C363        N364   1.357       .  A
C363        C696   1.434       .  S
N364        C365   1.357       .  A
C365        N366   1.357       .  A
C365        C684   1.434       .  S
N367        N368   1.323       .  A
N367        C371   1.345       .  A
N367       Cu375   2.076       .  S
N368        C369   1.346       .  A
N368       Cu374   2.074       .  S
C369        C370   1.380       .  A
C369        H372   1.082       .  S
C370        C371   1.380       .  A
C370        C677   1.439       .  S
C371        H373   1.083       .  S
Cu374       N377   2.074       .  S
Cu375       N385   2.076       .  S
Cu376       N378   2.073       .  S
Cu376       N384   2.074       .  S
N377        N378   1.324       .  A
N377        C381   1.345       .  A
N378        C379   1.345       .  A
C379        C380   1.378       .  A
C379        H382   1.082       .  S
C380        C381   1.379       .  A
C380        C681   1.435       .  S
C381        H383   1.082       .  S
N384        N385   1.323       .  A
N384        C388   1.346       .  A
N385        C386   1.345       .  A
C386        C387   1.380       .  A
C386        H389   1.083       .  S
C387        C388   1.380       .  A
C387        C745   1.439       .  S
C388        H390   1.082       .  S
N391        N392   1.323       .  A
N391        C395   1.345       .  A
N391       Cu399   2.075       .  S
N392        C393   1.346       .  A
N392       Cu398   2.074       .  S
C393        C394   1.380       .  A
C393        H396   1.082       .  S
C394        C395   1.380       .  A
C394        C676   1.439       .  S
C395        H397   1.083       .  S
Cu398       N401   2.074       .  S
Cu399       N409   2.076       .  S
Cu400       N402   2.074       .  S
Cu400       N408   2.074       .  S
N401        N402   1.324       .  A
N401        C405   1.345       .  A
N402        C403   1.345       .  A
C403        C404   1.379       .  A
C403        H406   1.082       .  S
C404        C405   1.378       .  A
C404        C672   1.435       .  S
C405        H407   1.082       .  S
N408        N409   1.323       .  A
N408        C412   1.346       .  A
N409        C410   1.345       .  A
C410        C411   1.380       .  A
C410        H413   1.083       .  S
C411        C412   1.380       .  A
C411        C713   1.439       .  S
C412        H414   1.082       .  S
N415        N416   1.323       .  A
N415        C419   1.345       .  A
N415       Cu423   2.076       .  S
N416        C417   1.346       .  A
N416       Cu422   2.074       .  S
C417        C418   1.380       .  A
C417        H420   1.082       .  S
C418        C419   1.380       .  A
C418        C700   1.439       .  S
C419        H421   1.083       .  S
Cu422       N425   2.074       .  S
Cu423       N433   2.076       .  S
Cu424       N426   2.074       .  S
Cu424       N432   2.074       .  S
N425        N426   1.324       .  A
N425        C429   1.345       .  A
N426        C427   1.345       .  A
C427        C428   1.379       .  A
C427        H430   1.082       .  S
C428        C429   1.378       .  A
C428        C665   1.435       .  S
C429        H431   1.082       .  S
N432        N433   1.323       .  A
N432        C436   1.346       .  A
N433        C434   1.345       .  A
C434        C435   1.380       .  A
C434        H437   1.083       .  S
C435        C436   1.380       .  A
C435        C689   1.439   1_565  S
C436        H438   1.082       .  S
C439        N440   1.357       .  A
C439        N444   1.357       .  A
C439        C669   1.434       .  S
N440        C441   1.357       .  A
C441        N442   1.357       .  A
C441        C668   1.434       .  S
N442        C443   1.357       .  A
C443        N444   1.357       .  A
C443        C661   1.434       .  S
N445        N446   1.323       .  A
N445        C449   1.345       .  A
N445       Cu453   2.076       .  S
N446        C447   1.346       .  A
N446       Cu452   2.074       .  S
C447        C448   1.380       .  A
C447        H450   1.082       .  S
C448        C449   1.380       .  A
C448        C657   1.439       .  S
C449        H451   1.083       .  S
Cu452       N455   2.074       .  S
Cu453       N463   2.076       .  S
Cu454       N456   2.074       .  S
Cu454       N462   2.074       .  S
N455        N456   1.324       .  A
N455        C459   1.345       .  A
N456        C457   1.345       .  A
C457        C458   1.378       .  A
C457        H460   1.082       .  S
C458        C459   1.379       .  A
C458        C664   1.435       .  S
C459        H461   1.082       .  S
N462        N463   1.323       .  A
N462        C466   1.346       .  A
N463        C464   1.345       .  A
C464        C465   1.380       .  A
C464        H467   1.083       .  S
C465        C466   1.380       .  A
C465        C680   1.439       .  S
C466        H468   1.082       .  S
N469        N470   1.323       .  A
N469        C473   1.345   1_565  A
N469       Cu477   2.076       .  S
N470        C471   1.346       .  A
N470       Cu476   2.074       .  S
C471        C472   1.380   1_565  A
C471        H474   1.082       .  S
C472        C473   1.380       .  A
C472        C793   1.439       .  S
C473        H475   1.083       .  S
Cu476       N479   2.073       .  S
Cu477       N487   2.076       .  S
Cu478       N480   2.074       .  S
Cu478       N486   2.074       .  S
N479        N480   1.324       .  A
N479        C483   1.345       .  A
N480        C481   1.345       .  A
C481        C482   1.379       .  A
C481        H484   1.082       .  S
C482        C483   1.378       .  A
C482        C653   1.435       .  S
C483        H485   1.082       .  S
N486        N487   1.323       .  A
N486        C490   1.346       .  A
N487        C488   1.345       .  A
C488        C489   1.380       .  A
C488        H491   1.083       .  S
C489        C490   1.380       .  A
C489        C701   1.439       .  S
C490        H492   1.082       .  S
N493        N494   1.323       .  A
N493        C497   1.345       .  A
N493       Cu501   2.076       .  S
N494        C495   1.346       .  A
N494       Cu500   2.074       .  S
C495        C496   1.380       .  A
C495        H498   1.082       .  S
C496        C497   1.380       .  A
C496        C648   1.439       .  S
C497        H499   1.083       .  S
Cu500       N503   2.074       .  S
Cu501       N511   2.075       .  S
Cu502       N504   2.074       .  S
Cu502       N510   2.074       .  S
N503        N504   1.324       .  A
N503        C507   1.345       .  A
N504        C505   1.345       .  A
C505        C506   1.378       .  A
C505        H508   1.082       .  S
C506        C507   1.379       .  A
C506        C652   1.435       .  S
C507        H509   1.082       .  S
N510        N511   1.323       .  A
N510        C514   1.346       .  A
N511        C512   1.345       .  A
C512        C513   1.380       .  A
C512        H515   1.083       .  S
C513        C514   1.380       .  A
C513        C720   1.439       .  S
C514        H516   1.082       .  S
C517        N518   1.357       .  A
C517        N522   1.357       .  A
C517        C641   1.434       .  S
N518        C519   1.357       .  A
C519        N520   1.357       .  A
C519        C656   1.434       .  S
N520        C521   1.357       .  A
C521        N522   1.357       .  A
C521        C649   1.434       .  S
N523        N524   1.323       .  A
N523        C527   1.345       .  A
N523       Cu531   2.076       .  S
N524        C525   1.346       .  A
N524       Cu530   2.074       .  S
C525        C526   1.380       .  A
C525        H528   1.082       .  S
C526        C527   1.380       .  A
C526        C640   1.439       .  S
C527        H529   1.083       .  S
Cu530       N533   2.073       .  S
Cu531       N541   2.076       .  S
Cu532       N534   2.074       .  S
Cu532       N540   2.074       .  S
N533        N534   1.324       .  A
N533        C537   1.345       .  A
N534        C535   1.345       .  A
C535        C536   1.379       .  A
C535        H538   1.082       .  S
C536        C537   1.378       .  A
C536        C644   1.435       .  S
C537        H539   1.082       .  S
N540        N541   1.323       .  A
N540        C544   1.346       .  A
N541        C542   1.345       .  A
C542        C543   1.380       .  A
C542        H545   1.083       .  S
C543        C544   1.380       .  A
C543        C788   1.439       .  S
C544        H546   1.082       .  S
N547        N548   1.323       .  A
N547        C551   1.345       .  A
N547       Cu555   2.075       .  S
N548        C549   1.346       .  A
N548       Cu554   2.074       .  S
C549        C550   1.380       .  A
C549        H552   1.082       .  S
C550        C551   1.380       .  A
C550        C645   1.439       .  S
C551        H553   1.083       .  S
Cu554       N557   2.073       .  S
Cu555       N565   2.076       .  S
Cu556       N558   2.074       .  S
Cu556       N564   2.074       .  S
N557        N558   1.324       .  A
N557        C561   1.345       .  A
N558        C559   1.345       .  A
C559        C560   1.379       .  A
C559        H562   1.082       .  S
C560        C561   1.378       .  A
C560        C633   1.435       .  S
C561        H563   1.082       .  S
N564        N565   1.323       .  A
N564        C568   1.346       .  A
N565        C566   1.345       .  A
C566        C567   1.380       .  A
C566        H569   1.083       .  S
C567        C568   1.380       .  A
C567        C772   1.439   1_565  S
C568        H570   1.082       .  S
N571        N572   1.323       .  A
N571        C575   1.345       .  A
N571       Cu579   2.076       .  S
N572        C573   1.346       .  A
N572       Cu578   2.074       .  S
C573        C574   1.380       .  A
C573        H576   1.082       .  S
C574        C575   1.380       .  A
C574        C660   1.439       .  S
C575        H577   1.083       .  S
Cu578       N581   2.074       .  S
Cu579       N589   2.076       .  S
Cu580       N582   2.074       .  S
Cu580       N588   2.074       .  S
N581        N582   1.324       .  A
N581        C585   1.345       .  A
N582        C583   1.345       .  A
C583        C584   1.379       .  A
C583        H586   1.082       .  S
C584        C585   1.378       .  A
C584        C629   1.435       .  S
C585        H587   1.082       .  S
N588        N589   1.323       .  A
N588        C592   1.346       .  A
N589        C590   1.345       .  A
C590        C591   1.380       .  A
C590        H593   1.083       .  S
C591        C592   1.380       .  A
C591        C637   1.439       .  S
C592        H594   1.082       .  S
C595        N596   1.357       .  A
C595        N600   1.357       .  A
C595        C632   1.434       .  S
N596        C597   1.357       .  A
C597        N598   1.357       .  A
C597        C625   1.434       .  S
N598        C599   1.357       .  A
C599        N600   1.357       .  A
C599        C636   1.434       .  S
N601        N602   1.323       .  A
N601        C605   1.345       .  A
N601       Cu609   2.076       .  S
N602        C603   1.346       .  A
N602       Cu608   2.074       .  S
C603        C604   1.380       .  A
C603        H606   1.082       .  S
C604        C605   1.380       .  A
C604        C673   1.439       .  S
C605        H607   1.083       .  S
Cu608       N611   2.074       .  S
Cu609       N619   2.076       .  S
Cu610       N612   2.073       .  S
Cu610       N618   2.074       .  S
N611        N612   1.324       .  A
N611        C615   1.345       .  A
N612        C613   1.345       .  A
C613        C614   1.378       .  A
C613        H616   1.082       .  S
C614        C615   1.379       .  A
C614        C628   1.435       .  S
C615        H617   1.082       .  S
N618        N619   1.323       .  A
N618        C622   1.346       .  A
N619        C620   1.345       .  A
C620        C621   1.380       .  A
C620        H623   1.083       .  S
C621        C622   1.380       .  A
C621        C776   1.439       .  S
C622        H624   1.082       .  S
C625        C626   1.204       .  T
C626        C627   1.410       .  S
C627        C628   1.204       .  T
C629        C630   1.204       .  T
C630        C631   1.410       .  S
C631        C632   1.204       .  T
C633        C634   1.204       .  T
C634        C635   1.410       .  S
C635        C636   1.204       .  T
C637        C638   1.207       .  T
C638        C639   1.414       .  S
C639        C640   1.207       .  T
C641        C642   1.204       .  T
C642        C643   1.410       .  S
C643        C644   1.204       .  T
C645        C646   1.207   1_556  T
C646        C647   1.413       .  S
C647        C648   1.207       .  T
C649        C650   1.204       .  T
C650        C651   1.410       .  S
C651        C652   1.204       .  T
C653        C654   1.204       .  T
C654        C655   1.410       .  S
C655        C656   1.204       .  T
C657        C658   1.207   1_655  T
C658        C659   1.414       .  S
C659        C660   1.207       .  T
C661        C662   1.204       .  T
C662        C663   1.410       .  S
C663        C664   1.204       .  T
C665        C666   1.204       .  T
C666        C667   1.410       .  S
C667        C668   1.204       .  T
C669        C670   1.204       .  T
C670        C671   1.410       .  S
C671        C672   1.204       .  T
C673        C674   1.207       .  T
C674        C675   1.414       .  S
C675        C676   1.207       .  T
C677        C678   1.207       .  T
C678        C679   1.414       .  S
C679        C680   1.207       .  T
C681        C682   1.204       .  T
C682        C683   1.410       .  S
C683        C684   1.204       .  T
C685        C686   1.204       .  T
C686        C687   1.410       .  S
C687        C688   1.204       .  T
C689        C690   1.207       .  T
C690        C691   1.414       .  S
C691        C692   1.207       .  T
C693        C694   1.204       .  T
C694        C695   1.410       .  S
C695        C696   1.204       .  T
C697        C698   1.207       .  T
C698        C699   1.414       .  S
C699        C700   1.207       .  T
C701        C702   1.207       .  T
C702        C703   1.414       .  S
C703        C704   1.207       .  T
C705        C706   1.204       .  T
C706        C707   1.410       .  S
C707        C708   1.204       .  T
C709        C710   1.204       .  T
C710        C711   1.410       .  S
C711        C712   1.204       .  T
C713        C714   1.207       .  T
C714        C715   1.414   1_556  S
C715        C716   1.207       .  T
C717        C718   1.207   1_655  T
C718        C719   1.414       .  S
C719        C720   1.207       .  T
C721        C722   1.204       .  T
C722        C723   1.410       .  S
C723        C724   1.204       .  T
C725        C726   1.207       .  T
C726        C727   1.414       .  S
C727        C728   1.207       .  T
C729        C730   1.204       .  T
C730        C731   1.410       .  S
C731        C732   1.204       .  T
C733        C734   1.207       .  T
C734        C735   1.414       .  S
C735        C736   1.207       .  T
C737        C738   1.204       .  T
C738        C739   1.410       .  S
C739        C740   1.204       .  T
C741        C742   1.207       .  T
C742        C743   1.414   1_554  S
C743        C744   1.207       .  T
C745        C746   1.207       .  T
C746        C747   1.414       .  S
C747        C748   1.207       .  T
C749        C750   1.204       .  T
C750        C751   1.410       .  S
C751        C752   1.204       .  T
C753        C754   1.207       .  T
C754        C755   1.414       .  S
C755        C756   1.207       .  T
C757        C758   1.204       .  T
C758        C759   1.410       .  S
C759        C760   1.204       .  T
C761        C762   1.207       .  T
C762        C763   1.413       .  S
C763        C764   1.207       .  T
C765        C766   1.204       .  T
C766        C767   1.410       .  S
C767        C768   1.204       .  T
C769        C770   1.207       .  T
C770        C771   1.413       .  S
C771        C772   1.207       .  T
C773        C774   1.207       .  T
C774        C775   1.414       .  S
C775        C776   1.207       .  T
C777        C778   1.204       .  T
C778        C779   1.410       .  S
C779        C780   1.204       .  T
C781        C782   1.207       .  T
C782        C783   1.414       .  S
C783        C784   1.207       .  T
C785        C786   1.207       .  T
C786        C787   1.414       .  S
C787        C788   1.207       .  T
C789        C790   1.204       .  T
C790        C791   1.410       .  S
C791        C792   1.204       .  T
C793        C794   1.207       .  T
C794        C795   1.414       .  S
C795        C796   1.207       .  T
C797        C798   1.204       .  T
C798        C799   1.410       .  S
C799        C800   1.204       .  T
C801        C802   1.207       .  T
C802        C803   1.414       .  S
C803        C804   1.207       .  T
C805        C806   1.207   1_556  T
C806        C807   1.414       .  S
C807        C808   1.207       .  T
C809        C810   1.204       .  T
C810        C811   1.410       .  S
C811        C812   1.204       .  T
C813        C814   1.207       .  T
C814        C815   1.414       .  S
C815        C816   1.207       .  T
