geometry optimzed in LAMMPS
_audit_creation_date              2020-11-30 
_audit_creation_method            'lammps2cif' 
_symmetry_space_group_name_H-M    'P1' 
_symmetry_Int_Tables_number       1 
_symmetry_cell_setting            triclinic 
loop_ 
_symmetry_equiv_pos_as_xyz 
  x,y,z 
_cell_length_a                    42.061084988033556 
_cell_length_b                    42.06406167006862 
_cell_length_c                    42.13388625711533 
_cell_angle_alpha                 89.93845987947944 
_cell_angle_beta                  90.18712603533803 
_cell_angle_gamma                 90.02296558072148 
loop_ 
_atom_site_label 
_atom_site_type_symbol 
_atom_site_fract_x 
_atom_site_fract_y 
_atom_site_fract_z 
_atom_site_charge 
N1          N  0.43267427  0.68174306  0.00086399    -0.27540
N2          N  0.45231155  0.65743716  0.99970496    -0.35400
C3          C  0.43607157  0.63029694  0.99903312     0.00800
C4          C  0.40403661  0.63712989  0.99981190     0.06830
C5          C  0.40247078  0.67028766  0.00093345    -0.06270
H6          H  0.44721241  0.60717955  0.99812388     0.07490
H7          H  0.38124911  0.68475901  0.00190027     0.08690
Cu8        Cu  0.50047612  0.66086674  0.99944328     0.44170
Cu9        Cu  0.45367570  0.72690412  0.00221523     0.41990
Cu10       Cu  0.54762294  0.72651878  0.99830863     0.43880
N11         N  0.54861958  0.65709845  0.99948111    -0.34930
N12         N  0.56835334  0.68136208  0.99901326    -0.29180
C13         C  0.59851547  0.66988447  0.99924119    -0.05280
C14         C  0.59684267  0.63674142  0.99984636     0.06940
C15         C  0.56478296  0.62991605  0.99999438     0.00730
H16         H  0.61978048  0.68434254  0.99895361     0.08380
H17         H  0.55359342  0.60679453  0.00045423     0.07460
N18         N  0.51669047  0.76564100  0.99943521    -0.36370
N19         N  0.48512122  0.76581499  0.00180111    -0.28550
C20         C  0.47517888  0.79620324  0.00318409    -0.03790
C21         C  0.50135344  0.81592692  0.00138187     0.04820
C22         C  0.52713833  0.79588640  0.99877133     0.02910
H23         H  0.45056948  0.80342794  0.00499360     0.08020
H24         H  0.55185484  0.80277278  0.99701444     0.06850
N25         N  0.66630826  0.58340068  0.00100609    -0.27540
N26         N  0.64203656  0.56367354  0.00044287    -0.35400
C27         C  0.61485669  0.57984222  0.99990447     0.00800
C28         C  0.62168768  0.61189659  0.00013399     0.06830
C29         C  0.65483431  0.61356313  0.00081511    -0.06270
H30         H  0.59173015  0.56865785  0.99937361     0.07490
H31         H  0.66929648  0.63482341  0.00117975     0.08690
Cu32       Cu  0.64574874  0.51552688  0.00040062     0.44170
Cu33       Cu  0.71147819  0.56268279  0.00177204     0.41990
Cu34       Cu  0.71172930  0.46873643  0.99780728     0.43880
N35         N  0.64228806  0.46736236  0.00012430    -0.34930
N36         N  0.66660344  0.44773384  0.99905219    -0.29180
C37         C  0.65517705  0.41752609  0.99899251    -0.05280
C38         C  0.62202127  0.41907417  0.00002801     0.06940
C39         C  0.61515703  0.45110580  0.00074557     0.00730
H40         H  0.66966749  0.39631539  0.99810445     0.08380
H41         H  0.59202697  0.46222925  0.00159705     0.07460
N42         N  0.75065247  0.50011375  0.99825477    -0.36370
N43         N  0.75055436  0.53168458  0.00063907    -0.28550
C44         C  0.78083127  0.54205719  0.00128325    -0.03790
C45         C  0.80078581  0.51620841  0.99865202     0.04820
C46         C  0.78100542  0.49008830  0.99683985     0.02910
H47         H  0.78779162  0.56675343  0.00302088     0.08020
H48         H  0.78816297  0.46546682  0.99497289     0.06850
N49         N  0.56850374  0.34962222  0.00082974    -0.27540
N50         N  0.54883858  0.37392535  0.00005515    -0.35400
C51         C  0.56508565  0.40106934  0.99953273     0.00800
C52         C  0.59713795  0.39420569  0.99999982     0.06830
C53         C  0.59870699  0.36105115  0.00078384    -0.06270
H54         H  0.55394931  0.42420188  0.99890060     0.07490
H55         H  0.61993116  0.34655677  0.00142447     0.08690
Cu56       Cu  0.50064060  0.37035180  0.99995321     0.44170
Cu57       Cu  0.54760402  0.30449070  0.00186592     0.41990
Cu58       Cu  0.45361317  0.30436631  0.99864878     0.43880
N59         N  0.45244444  0.37388953  0.99990809    -0.34930
N60         N  0.43275360  0.34958221  0.99937142    -0.29180
C61         C  0.40256404  0.36104585  0.99944914    -0.05280
C62         C  0.40417340  0.39421469  0.00002897     0.06940
C63         C  0.43623493  0.40104931  0.00032017     0.00730
H64         H  0.38131610  0.34656502  0.99903495     0.08380
H65         H  0.44740481  0.42417615  0.00077551     0.07460
N66         N  0.48486951  0.26533822  0.99923204    -0.36370
N67         N  0.51648269  0.26542783  0.00125658    -0.28550
C68         C  0.52681064  0.23514625  0.00200382    -0.03790
C69         C  0.50088072  0.21520665  0.99991772     0.04820
C70         C  0.47476487  0.23497092  0.99819166     0.02910
H71         H  0.55152398  0.22816812  0.00345119     0.08020
H72         H  0.45011118  0.22780422  0.99655369     0.06850
N73         N  0.33464694  0.58350526  0.99916157    -0.27540
N74         N  0.35898293  0.56387207  0.99987442    -0.35400
C75         C  0.38610611  0.58016486  0.00031621     0.00800
C76         C  0.37919731  0.61220805  0.99985740     0.06830
C77         C  0.34603531  0.61372354  0.99916213    -0.06270
H78         H  0.40926005  0.56906423  0.00091668     0.07490
H79         H  0.33150589  0.63492293  0.99858641     0.08690
Cu80       Cu  0.35552599  0.51564425  0.00008156     0.44170
Cu81       Cu  0.28949967  0.56261366  0.99840042     0.41990
Cu82       Cu  0.28957653  0.46865426  0.00144559     0.43880
N83         N  0.35906803  0.46742557  0.00017984    -0.34930
N84         N  0.33474113  0.44776244  0.00072902    -0.29180
C85         C  0.34615411  0.41755891  0.00068637    -0.05280
C86         C  0.37932050  0.41911713  0.00010579     0.06940
C87         C  0.38620531  0.45117186  0.99978566     0.00730
H88         H  0.33163934  0.39633727  0.00112079     0.08380
H89         H  0.40935134  0.46230364  0.99931594     0.07460
N90         N  0.25053327  0.49983439  0.00134497    -0.36370
N91         N  0.25049463  0.53144109  0.99956851    -0.28550
C92         C  0.22016792  0.54166155  0.99942043    -0.03790
C93         C  0.20026407  0.51567174  0.00174984     0.04820
C94         C  0.22023568  0.48962319  0.00270518     0.02910
H95         H  0.21312338  0.56636125  0.99814214     0.08020
H96         H  0.21325119  0.46490180  0.00392673     0.06850
N97         N  0.00210022  0.58253897  0.66561123    -0.27540
N98         N  0.00226366  0.56287863  0.64135362    -0.35400
C99         C  0.00167700  0.57908097  0.61423015     0.00800
C100        C  0.00110786  0.61111173  0.62104580     0.06830
C101        C  0.00142997  0.61272419  0.65415599    -0.06270
H102        H  0.00149864  0.56791714  0.59115550     0.07490
H103        H  0.00094502  0.63395250  0.66859967     0.08690
Cu104      Cu  0.00241916  0.51474952  0.64486710     0.44170
Cu105      Cu  0.00221177  0.56156028  0.71067356     0.41990
Cu106      Cu  0.99502059  0.46775382  0.70996905     0.43880
N107        N  0.00085152  0.46667029  0.64106463    -0.34930
N108        N  0.99768373  0.44700353  0.66513551    -0.29180
C109        C  0.99711691  0.41686657  0.65369353    -0.05280
C110        C  0.00000386  0.41850209  0.62075558     0.06940
C111        C  0.00233077  0.45048952  0.61400937     0.00730
H112        H  0.99461139  0.39567161  0.66801972     0.08380
H113        H  0.00481317  0.46162275  0.59103069     0.07460
N114        N  0.99763592  0.49848182  0.74894847    -0.36370
N115        N  0.00126666  0.52988991  0.74927240    -0.28550
C116        C  0.00371120  0.53949294  0.77962523    -0.03790
C117        C  0.00162305  0.51324915  0.79938966     0.04820
C118        C  0.99721631  0.48782915  0.77903408     0.02910
H119        H  0.00680789  0.56399181  0.78677157     0.08020
H120        H  0.99349948  0.46322697  0.78542583     0.06850
N121        N  0.00211078  0.68048893  0.43220184    -0.27540
N122        N  0.99904036  0.65623244  0.45168836    -0.35400
C123        C  0.99764360  0.62923031  0.43533060     0.00800
C124        C  0.99992545  0.63619971  0.40342771     0.06830
C125        C  0.00269152  0.66922418  0.40203653    -0.06270
H126        H  0.99528054  0.60612105  0.44628642     0.07490
H127        H  0.00517785  0.68372926  0.38098269     0.08690
Cu128      Cu  0.99766367  0.65965138  0.49981207     0.44170
Cu129      Cu  0.00480197  0.72534936  0.45308273     0.41990
Cu130      Cu  0.99974211  0.72557177  0.54673675     0.43880
N131        N  0.99837964  0.65615075  0.54795653    -0.34930
N132        N  0.99936075  0.68046492  0.56755194    -0.29180
C133        C  0.00029762  0.66907094  0.59770288    -0.05280
C134        C  0.99992521  0.63592281  0.59618336     0.06940
C135        C  0.99868197  0.62901776  0.56421588     0.00730
H136        H  0.00143414  0.68358585  0.61884353     0.08380
H137        H  0.99824415  0.60587368  0.55314152     0.07460
N138        N  0.00004733  0.76437011  0.51540810    -0.36370
N139        N  0.00266284  0.76425946  0.48395876    -0.28550
C140        C  0.00251717  0.79446777  0.47351337    -0.03790
C141        C  0.99891137  0.81460934  0.49917430     0.04820
C142        C  0.99782481  0.79467493  0.52528790     0.02910
H143        H  0.00524700  0.80112912  0.44889162     0.08020
H144        H  0.99548557  0.80167236  0.54986567     0.06850
N145        N  0.99931600  0.58310989  0.33390669    -0.27540
N146        N  0.99924680  0.56337844  0.35815202    -0.35400
C147        C  0.99967908  0.57947458  0.38529066     0.00800
C148        C  0.99997697  0.61151034  0.37851422     0.06830
C149        C  0.99979826  0.61325505  0.34540697    -0.06270
H150        H  0.99977114  0.56823220  0.40835646     0.07490
H151        H  0.99984084  0.63454769  0.33100012     0.08690
Cu152      Cu  0.99860212  0.51532188  0.35478231     0.44170
Cu153      Cu  0.99881106  0.56230550  0.28879914     0.41990
Cu154      Cu  0.00604809  0.46854867  0.29003340     0.43880
N155        N  0.99950808  0.46730160  0.35879683    -0.34930
N156        N  0.00273668  0.44768061  0.33474973    -0.29180
C157        C  0.00319007  0.41753202  0.34617736    -0.05280
C158        C  0.00024421  0.41913324  0.37909091     0.06940
C159        C  0.99790661  0.45108264  0.38585936     0.00730
H160        H  0.00596215  0.39637840  0.33188986     0.08380
H161        H  0.99548653  0.46213211  0.40886867     0.07460
N162        N  0.00367843  0.49914674  0.25094614    -0.36370
N163        N  0.99981562  0.53051112  0.25035446    -0.28550
C164        C  0.99745003  0.53988641  0.21989854    -0.03790
C165        C  0.99989223  0.51352487  0.20034412     0.04820
C166        C  0.00441336  0.48830721  0.22097850     0.02910
H167        H  0.99422002  0.56431751  0.21253821     0.08020
H168        H  0.00867681  0.46373371  0.21494074     0.06850
N169        N  0.99882075  0.34984176  0.43225734    -0.27540
N170        N  0.00136839  0.37398503  0.45191097    -0.35400
C171        C  0.00262841  0.40113701  0.43576052     0.00800
C172        C  0.00079424  0.39434104  0.40383144     0.06830
C173        C  0.99849271  0.36131350  0.40216380    -0.06270
H174        H  0.00454307  0.42421969  0.44684074     0.07490
H175        H  0.99627695  0.34696394  0.38099178     0.08690
Cu176      Cu  0.00202814  0.37010414  0.49987857     0.44170
Cu177      Cu  0.99611748  0.30489372  0.45289151     0.41990
Cu178      Cu  0.00110215  0.30417602  0.54664912     0.43880
N179        N  0.00112437  0.37352582  0.54785970    -0.34930
N180        N  0.00068112  0.34919468  0.56748740    -0.29180
C181        C  0.00001469  0.36057704  0.59760834    -0.05280
C182        C  0.00010709  0.39372064  0.59597721     0.06940
C183        C  0.00076924  0.40065265  0.56402386     0.00730
H184        H  0.99964497  0.34606229  0.61880411     0.08380
H185        H  0.00094288  0.42380320  0.55289616     0.07460
N186        N  0.00103601  0.26562335  0.51512777    -0.36370
N187        N  0.99825627  0.26589898  0.48367924    -0.28550
C188        C  0.99834455  0.23575836  0.47312926    -0.03790
C189        C  0.00215635  0.21547952  0.49871579     0.04820
C190        C  0.00338967  0.23527695  0.52489783     0.02910
H191        H  0.99541084  0.22926009  0.44848813     0.08020
H192        H  0.00586257  0.22816260  0.54945792     0.06850
N193        N  0.43300681  0.01531338  0.66608012    -0.27540
N194        N  0.45281845  0.01467912  0.64200855    -0.35400
C195        C  0.43682341  0.01504669  0.61473906     0.00800
C196        C  0.40475899  0.01595646  0.62125937     0.06830
C197        C  0.40290534  0.01607697  0.65435327    -0.06270
H198        H  0.44816021  0.01482248  0.59176902     0.07490
H199        H  0.38157464  0.01684094  0.66860028     0.08690
Cu200      Cu  0.50085449  0.01415751  0.64601482     0.44170
Cu201      Cu  0.45386977  0.01529609  0.71120097     0.41990
Cu202      Cu  0.54812198  0.01808675  0.71128638     0.43880
N203        N  0.54885132  0.01571852  0.64207221    -0.34930
N204        N  0.56871375  0.01752770  0.66617551    -0.29180
C205        C  0.59876069  0.01845730  0.65453374    -0.05280
C206        C  0.59683057  0.01713430  0.62146596     0.06940
C207        C  0.56477469  0.01544190  0.61485269     0.00730
H208        H  0.62011416  0.01991139  0.66882371     0.08380
H209        H  0.55341301  0.01418940  0.59185446     0.07460
N210        N  0.51695583  0.01610087  0.75008833    -0.36370
N211        N  0.48532893  0.01470844  0.75001173    -0.28550
C212        C  0.47518318  0.01299388  0.78021254    -0.03790
C213        C  0.50128077  0.01314685  0.80020128     0.04820
C214        C  0.52724863  0.01550038  0.78036323     0.02910
H215        H  0.45044497  0.01220370  0.78710894     0.08020
H216        H  0.55198382  0.01647402  0.78741997     0.06850
N217        N  0.66570805  0.01910549  0.56778907    -0.27540
N218        N  0.64141391  0.01608563  0.54827371    -0.35400
C219        C  0.61440691  0.01491060  0.56459988     0.00800
C220        C  0.62142321  0.01727343  0.59650671     0.06830
C221        C  0.65446293  0.01989838  0.59793045    -0.06270
H222        H  0.59127223  0.01255734  0.55363003     0.07490
H223        H  0.66900936  0.02224622  0.61900679     0.08690
Cu224      Cu  0.64487760  0.01404006  0.50017858     0.44170
Cu225      Cu  0.71067497  0.02114811  0.54708956     0.41990
Cu226      Cu  0.71122213  0.01415249  0.45370631     0.43880
N227        N  0.64176490  0.01365419  0.45199876    -0.34930
N228        N  0.66622845  0.01381132  0.43261470    -0.29180
C229        C  0.65507018  0.01421231  0.40235044    -0.05280
C230        C  0.62192030  0.01439910  0.40356538     0.06940
C231        C  0.61475800  0.01398743  0.43547529     0.00730
H232        H  0.66975391  0.01471529  0.38133094     0.08380
H233        H  0.59151710  0.01414705  0.44632600     0.07460
N234        N  0.74994979  0.01501311  0.48514800    -0.36370
N235        N  0.74976455  0.01834459  0.51652854    -0.28550
C236        C  0.77995959  0.01837607  0.52710337    -0.03790
C237        C  0.80016303  0.01410764  0.50160794     0.04820
C238        C  0.78026700  0.01247401  0.47544562     0.02910
H239        H  0.78656193  0.02164445  0.55169057     0.08020
H240        H  0.78729430  0.00951152  0.45095416     0.06850
N241        N  0.43342747  0.01442187  0.33366589    -0.27540
N242        N  0.45323473  0.01676750  0.35776672    -0.35400
C243        C  0.43726998  0.01697870  0.38496828     0.00800
C244        C  0.40524714  0.01468995  0.37833322     0.06830
C245        C  0.40338505  0.01307637  0.34527747    -0.06270
H246        H  0.44858226  0.01850379  0.40797377     0.07490
H247        H  0.38208326  0.01107043  0.33097687     0.08690
Cu248      Cu  0.50124438  0.01872306  0.35378115     0.44170
Cu249      Cu  0.45410003  0.01354711  0.28861499     0.41990
Cu250      Cu  0.54829739  0.01374600  0.28850800     0.43880
N251        N  0.54930542  0.01753521  0.35768065    -0.34930
N252        N  0.56905845  0.01523937  0.33365432    -0.29180
C253        C  0.59913754  0.01405228  0.34539777    -0.05280
C254        C  0.59734021  0.01560431  0.37845168     0.06940
C255        C  0.56533401  0.01782900  0.38493688     0.00730
H256        H  0.62040098  0.01185119  0.33120172     0.08380
H257        H  0.55405402  0.01926024  0.40789246     0.07460
N258        N  0.51686046  0.01468355  0.24968637    -0.36370
N259        N  0.48521052  0.01481748  0.24976425    -0.28550
C260        C  0.47480103  0.01607520  0.21956540    -0.03790
C261        C  0.50074913  0.01704840  0.19955602     0.04820
C262        C  0.52691719  0.01575196  0.21941496     0.02910
H263        H  0.45000103  0.01584370  0.21270670     0.08020
H264        H  0.55163181  0.01581561  0.21237205     0.06850
N265        N  0.33583944  0.01744734  0.56711325    -0.27540
N266        N  0.36029515  0.01763385  0.54772715    -0.35400
C267        C  0.38730509  0.01731821  0.56423960     0.00800
C268        C  0.38015380  0.01689603  0.59615483     0.06830
C269        C  0.34700148  0.01702060  0.59737699    -0.06270
H270        H  0.41053533  0.01716419  0.55337121     0.07490
H271        H  0.33232124  0.01654959  0.61839982     0.08690
Cu272      Cu  0.35711156  0.01728968  0.49955990     0.44170
Cu273      Cu  0.29090261  0.01710076  0.54592574     0.41990
Cu274      Cu  0.29141262  0.00833200  0.45267305     0.43880
N275        N  0.36056907  0.01516958  0.45147673    -0.34930
N276        N  0.33636408  0.01140369  0.43197707    -0.29180
C277        C  0.34765312  0.01072069  0.40184476    -0.05280
C278        C  0.38062147  0.01419452  0.40326493     0.06940
C279        C  0.38754779  0.01693789  0.43515569     0.00730
H280        H  0.33318986  0.00784695  0.38077731     0.08380
H281        H  0.41061147  0.01991795  0.44612310     0.07460
N282        N  0.25229976  0.01108774  0.48326154    -0.36370
N283        N  0.25219633  0.01548124  0.51450054    -0.28550
C284        C  0.22191848  0.01825987  0.52420101    -0.03790
C285        C  0.20185946  0.01550794  0.49822205     0.04820
C286        C  0.22205277  0.01038871  0.47282660     0.02910
H287        H  0.21505992  0.02218240  0.54860164     0.08020
H288        H  0.21548053  0.00612760  0.44839907     0.06850
O289        O  0.00154814  0.96738180  0.47471018    -0.73190
O290        O  0.00041877  0.06263501  0.47451060    -0.74170
O291        O  0.04871138  0.01548094  0.47527065    -0.62790
O292        O  0.95334810  0.01460084  0.47403699    -0.71200
O293        O  0.95292510  0.01535386  0.52660957    -0.70760
O294        O  0.04817604  0.01491735  0.52774147    -0.62010
O295        O  0.00066544  0.06264488  0.52709102    -0.74520
O296        O  0.00044409  0.96744251  0.52729152    -0.73300
Cu297      Cu  0.00103181  0.01500405  0.47279767     1.04560
Cu298      Cu  0.00053894  0.01506710  0.52899840     1.04330
C299        C  0.00138568  0.95230510  0.50105438     0.93000
C300        C  0.00007538  0.07775455  0.50079850     0.92140
C301        C  0.06365621  0.01516160  0.50174666     0.84290
C302        C  0.93800768  0.01539606  0.50013663     0.90560
O303        O  0.47392145  0.96779573  0.00018578    -0.73190
O304        O  0.47372823  0.06323869  0.99939947    -0.74170
O305        O  0.47397589  0.01518985  0.95207597    -0.62790
O306        O  0.47388191  0.01568684  0.04735513    -0.71200
O307        O  0.52659758  0.01334246  0.04743805    -0.70760
O308        O  0.52668997  0.01795000  0.95238263    -0.62010
O309        O  0.52649196  0.06342219  0.00226521    -0.74520
O310        O  0.52667549  0.96792773  0.99759206    -0.73300
Cu311      Cu  0.47202300  0.01548690  0.99973153     1.04560
Cu312      Cu  0.52847324  0.01567152  0.99991961     1.04330
C313        C  0.50030221  0.95288061  0.99862583     0.93000
C314        C  0.50003506  0.07830210  0.00121441     0.92140
C315        C  0.50036070  0.01696433  0.93721940     0.84290
C316        C  0.50024790  0.01397836  0.06241782     0.90560
O317        O  0.99980395  0.48866883  0.95225112    -0.73190
O318        O  0.00092197  0.48895051  0.04752209    -0.74170
O319        O  0.95266202  0.48854621  0.99997445    -0.62790
O320        O  0.04804266  0.48860560  0.99977988    -0.71200
O321        O  0.04808211  0.54138360  0.99839636    -0.70760
O322        O  0.95260500  0.54135435  0.00110703    -0.62010
O323        O  0.00156917  0.54158007  0.04723468    -0.74520
O324        O  0.99909924  0.54131005  0.95224850    -0.73300
Cu325      Cu  0.00035503  0.48684670  0.99989363     1.04560
Cu326      Cu  0.00033821  0.54323857  0.99973813     1.04330
C327        C  0.99891739  0.51502808  0.93712198     0.93000
C328        C  0.00179321  0.51536198  0.06251522     0.92140
C329        C  0.93766685  0.51490947  0.00078680     0.84290
C330        C  0.06307202  0.51496719  0.99877567     0.90560
C331        C  0.09903260  0.01552239  0.50185341    -0.06370
C332        C  0.11472955  0.02622889  0.47444008    -0.17500
C333        C  0.14791866  0.02761142  0.47278789     0.10830
C334        C  0.16649495  0.01641484  0.49857587    -0.06300
C335        C  0.15081380  0.00557664  0.52592564    -0.17530
C336        C  0.11764598  0.00553598  0.52811401     0.10860
S337        S  0.16444789  0.04611853  0.43796055    -0.32500
S338        S  0.10092533  0.99142761  0.56479563    -0.32500
H339        H  0.08843320  0.02146483  0.57256021     0.28870
H340        H  0.18794728  0.06300232  0.45477904     0.28860
H341        H  0.10102023  0.03473263  0.45434049     0.19450
H342        H  0.16447243  0.99682541  0.54593147     0.19460
C343        C  0.50072167  0.01732216  0.16443007    -0.06370
C344        C  0.52150645  0.99674133  0.14847646    -0.17500
C345        C  0.52122632  0.99438777  0.11534631     0.10830
C346        C  0.50019927  0.01359046  0.09745784    -0.06300
C347        C  0.47942219  0.03415535  0.11338523    -0.17530
C348        C  0.47980492  0.03663208  0.14648631     0.10860
S349        S  0.54698169  0.96519083  0.09754104    -0.32500
S350        S  0.45453360  0.06638494  0.16401566    -0.32500
H351        H  0.47617619  0.07488053  0.18808051     0.28870
H352        H  0.52538642  0.95632211  0.07355008     0.28860
H353        H  0.53736917  0.98154868  0.16197733     0.19450
H354        H  0.46357356  0.04935217  0.09986247     0.19460
C355        C  0.83545032  0.01337126  0.50155467    -0.06370
C356        C  0.85143298  0.02741920  0.47588943    -0.17500
C357        C  0.88463349  0.02907154  0.47495719     0.10830
C358        C  0.90276872  0.01582239  0.50004044    -0.06300
C359        C  0.88679952  0.00174404  0.52567845    -0.17530
C360        C  0.85361595  0.99985598  0.52648980     0.10860
S361        S  0.90203215  0.04996184  0.44190992    -0.32500
S362        S  0.83647573  0.97784145  0.55892697    -0.32500
H363        H  0.81284021  0.96324018  0.54026657     0.28870
H364        H  0.92438617  0.06645141  0.46060873     0.28860
H365        H  0.83794629  0.03822372  0.45677547     0.19450
H366        H  0.90032379  0.99101249  0.54482166     0.19460
C367        C  0.50141005  0.01297205  0.83530149    -0.06370
C368        C  0.52053759  0.03518319  0.85127308    -0.17500
C369        C  0.52002777  0.03767836  0.88439060     0.10830
C370        C  0.50040518  0.01708021  0.90220512    -0.06300
C371        C  0.48135699  0.99481644  0.88626013    -0.17530
C372        C  0.48205894  0.99215028  0.85317646     0.10860
S373        S  0.54370064  0.06866623  0.90226336    -0.32500
S374        S  0.45934104  0.96035961  0.83553175    -0.32500
H375        H  0.48145267  0.95380307  0.81143192     0.28870
H376        H  0.52225308  0.07529497  0.92690553     0.28860
H377        H  0.53522990  0.05145646  0.83778387     0.19450
H378        H  0.46670799  0.97851746  0.89977466     0.19460
C379        C  0.00260272  0.18021227  0.49882248    -0.06370
C380        C  0.98818086  0.16432813  0.52433744    -0.17500
C381        C  0.98626965  0.13116658  0.52536510     0.10830
C382        C  0.99962287  0.11295992  0.50053399    -0.06300
C383        C  0.01399283  0.12881573  0.47498577    -0.17530
C384        C  0.01614536  0.16197802  0.47408271     0.10860
S385        S  0.96497195  0.11392311  0.55822167    -0.32500
S386        S  0.03853580  0.17896216  0.44183960    -0.32500
H387        H  0.05321841  0.20243923  0.46059482     0.28870
H388        H  0.94861252  0.09156529  0.53943959     0.28860
H389        H  0.97730073  0.17786752  0.54326676     0.19450
H390        H  0.02479871  0.11521267  0.45604195     0.19460
C391        C  0.99989225  0.51326663  0.16503431    -0.06370
C392        C  0.01231846  0.53984122  0.14911829    -0.17500
C393        C  0.01396563  0.54105933  0.11600563     0.10830
C394        C  0.00231915  0.51528221  0.09776849    -0.06300
C395        C  0.98970598  0.48876714  0.11364862    -0.17530
C396        C  0.98811809  0.48747098  0.14687656     0.10860
S397        S  0.03246008  0.57572609  0.09893904    -0.32500
S398        S  0.96843896  0.45387776  0.16503464    -0.32500
H399        H  0.96705962  0.43451623  0.13786042     0.28870
H400        H  0.05115982  0.55822649  0.07751715     0.28860
H401        H  0.02177456  0.55962829  0.16259959     0.19450
H402        H  0.98004580  0.46930879  0.09987341     0.19460
C403        C  0.99845621  0.84987653  0.49935503    -0.06370
C404        C  0.01349639  0.86570650  0.52461401    -0.17500
C405        C  0.01551169  0.89887647  0.52554027     0.10830
C406        C  0.00164280  0.91711010  0.50089736    -0.06300
C407        C  0.98658880  0.90131478  0.47565150    -0.17530
C408        C  0.98433136  0.86815580  0.47485034     0.10860
S409        S  0.03765792  0.91614437  0.55792122    -0.32500
S410        S  0.96110990  0.85119907  0.44306921    -0.32500
H411        H  0.94703839  0.82758370  0.46207299     0.28870
H412        H  0.05322294  0.93872569  0.53881347     0.28860
H413        H  0.02478468  0.85211458  0.54336700     0.19450
H414        H  0.97536666  0.91497143  0.45688820     0.19460
C415        C  0.00184763  0.51321183  0.83466428    -0.06370
C416        C  0.98857340  0.53941155  0.85044523    -0.17500
C417        C  0.98650001  0.54045400  0.88355074     0.10830
C418        C  0.99849269  0.51486962  0.90188929    -0.06300
C419        C  0.01174321  0.48865209  0.88611597    -0.17530
C420        C  0.01406711  0.48773300  0.85301576     0.10860
S421        S  0.96683454  0.57448946  0.90047889    -0.32500
S422        S  0.03504771  0.45438809  0.83632094    -0.32500
H423        H  0.05091152  0.47252150  0.81319059     0.28870
H424        H  0.94878679  0.55643966  0.92205780     0.28860
H425        H  0.97871847  0.55895613  0.83685861     0.19450
H426        H  0.02158173  0.46910740  0.89973883     0.19460
C427        C  0.09809495  0.51483233  0.99853421    -0.06370
C428        C  0.11415456  0.49788402  0.02235198    -0.17500
C429        C  0.14735440  0.49852938  0.02457073     0.10830
C430        C  0.16512647  0.51576390  0.00191712    -0.06300
C431        C  0.14901741  0.53272063  0.97808297    -0.17530
C432        C  0.11579303  0.53211946  0.97592013     0.10860
S433        S  0.16538867  0.47845797  0.05789722    -0.32500
S434        S  0.09747791  0.55250920  0.94291460    -0.32500
H435        H  0.07242364  0.53069549  0.93891290     0.28870
H436        H  0.19003154  0.50068670  0.06212731     0.28860
H437        H  0.10066280  0.48494015  0.04003506     0.19450
H438        H  0.16246586  0.54571177  0.96041075     0.19460
C439        C  0.50109765  0.18019774  0.99964291    -0.06370
C440        C  0.50877484  0.16401836  0.02775400    -0.17500
C441        C  0.50800731  0.13075250  0.02921057     0.10830
C442        C  0.49981714  0.11324484  0.00177203    -0.06300
C443        C  0.49204483  0.12944554  0.97371252    -0.17530
C444        C  0.49298534  0.16267103  0.97224249     0.10860
S445        S  0.51702797  0.11231541  0.06689431    -0.32500
S446        S  0.48447662  0.18121465  0.93455266    -0.32500
H447        H  0.50490865  0.20734890  0.93871125     0.28870
H448        H  0.49992279  0.08411957  0.06182216     0.28860
H449        H  0.51480985  0.17743592  0.04887796     0.19450
H450        H  0.48590457  0.11608561  0.95258772     0.19460
C451        C  0.90273489  0.51478949  0.00107512    -0.06370
C452        C  0.88656206  0.50347974  0.97423178    -0.17500
C453        C  0.85334674  0.50449057  0.97246309     0.10830
C454        C  0.83581975  0.51642856  0.99837615    -0.06300
C455        C  0.85203453  0.52780349  0.02520925    -0.17530
C456        C  0.88526705  0.52674348  0.02698378     0.10860
S457        S  0.83484074  0.49146820  0.93606183    -0.32500
S458        S  0.90397180  0.53981834  0.06328411    -0.32500
H459        H  0.92946429  0.51823487  0.06215977     0.28870
H460        H  0.80934383  0.51305462  0.93712643     0.28860
H461        H  0.89995515  0.49462146  0.95416122     0.19450
H462        H  0.83867025  0.53670827  0.04527163     0.19460
C463        C  0.50026916  0.91791628  0.99847332    -0.06370
C464        C  0.48823163  0.90192414  0.02505583    -0.17500
C465        C  0.48916335  0.86872285  0.02702566     0.10830
C466        C  0.50169036  0.85098144  0.00152902    -0.06300
C467        C  0.51383985  0.86700260  0.97497738    -0.17530
C468        C  0.51292628  0.90023089  0.97302251     0.10860
S469        S  0.47535449  0.85052563  0.06321846    -0.32500
S470        S  0.52700941  0.91859326  0.93699838    -0.32500
H471        H  0.50567975  0.94430181  0.93751519     0.28870
H472        H  0.49703521  0.82508427  0.06284717     0.28860
H473        H  0.47888087  0.91545654  0.04481545     0.19450
H474        H  0.52323615  0.85348562  0.95523562     0.19280
loop_ 
_geom_bond_atom_site_label_1 
_geom_bond_atom_site_label_2 
_geom_bond_distance 
_geom_bond_site_symmetry_2 
_ccdc_geom_bond_type 
N1            N2   1.316   1_554  A
N1            C5   1.359       .  A
N1           Cu9   2.095       .  S
N2            C3   1.330       .  A
N2           Cu8   2.031       .  S
C3            C4   1.378       .  A
C3            H6   1.080       .  S
C4            C5   1.397   1_556  A
C4           C76   1.480       .  S
C5            H7   1.082       .  S
Cu8          N11   2.031       .  S
Cu9          N19   2.104       .  S
Cu10         N12   2.091       .  S
Cu10         N18   2.099       .  S
N11          N12   1.315       .  A
N11          C15   1.331       .  A
N12          C13   1.358       .  A
C13          C14   1.396       .  A
C13          H16   1.081       .  S
C14          C15   1.379       .  A
C14          C28   1.478   1_556  S
C15          H17   1.080   1_556  S
N18          N19   1.332   1_556  A
N18          C22   1.346       .  A
N19          C20   1.346       .  A
C20          C21   1.381       .  A
C20          H23   1.082       .  S
C21          C22   1.379   1_554  A
C21         C466   1.475       .  S
C22          H24   1.082       .  S
N25          N26   1.316       .  A
N25          C29   1.358       .  A
N25         Cu33   2.091       .  S
N26          C27   1.331   1_554  A
N26         Cu32   2.031       .  S
C27          C28   1.379   1_556  A
C27          H30   1.081       .  S
C28          C29   1.396       .  A
C29          H31   1.081       .  S
Cu32         N35   2.031       .  S
Cu33         N43   2.099       .  S
Cu34         N36   2.094       .  S
Cu34         N42   2.103       .  S
N35          N36   1.316   1_554  A
N35          C39   1.330       .  A
N36          C37   1.358       .  A
C37          C38   1.397   1_556  A
C37          H40   1.081       .  S
C38          C39   1.378       .  A
C38          C52   1.479   1_554  S
C39          H41   1.080       .  S
N42          N43   1.332   1_556  A
N42          C46   1.346       .  A
N43          C44   1.346       .  A
C44          C45   1.379   1_554  A
C44          H47   1.082       .  S
C45          C46   1.380       .  A
C45         C454   1.474       .  S
C46          H48   1.082       .  S
N49          N50   1.316       .  A
N49          C53   1.358       .  A
N49         Cu57   2.092       .  S
N50          C51   1.331   1_554  A
N50         Cu56   2.033   1_554  S
C51          C52   1.379       .  A
C51          H54   1.080       .  S
C52          C53   1.397   1_556  A
C53          H55   1.081       .  S
Cu56         N59   2.033       .  S
Cu57         N67   2.101       .  S
Cu58         N60   2.095       .  S
Cu58         N66   2.104       .  S
N59          N60   1.316       .  A
N59          C63   1.331   1_556  A
N60          C61   1.358       .  A
C61          C62   1.397   1_556  A
C61          H64   1.081       .  S
C62          C63   1.379       .  A
C62          C86   1.480       .  S
C63          H65   1.080       .  S
N66          N67   1.332   1_556  A
N66          C70   1.347       .  A
N67          C68   1.346       .  A
C68          C69   1.378   1_554  A
C68          H71   1.082       .  S
C69          C70   1.380       .  A
C69         C439   1.473       .  S
C70          H72   1.082       .  S
N73          N74   1.316       .  A
N73          C77   1.358       .  A
N73         Cu81   2.092       .  S
N74          C75   1.331   1_556  A
N74         Cu80   2.034   1_556  S
C75          C76   1.379   1_554  A
C75          H78   1.080       .  S
C76          C77   1.397       .  A
C77          H79   1.081       .  S
Cu80         N83   2.034       .  S
Cu81         N91   2.100       .  S
Cu82         N84   2.094       .  S
Cu82         N90   2.102       .  S
N83          N84   1.316       .  A
N83          C87   1.331   1_554  A
N84          C85   1.358       .  A
C85          C86   1.397       .  A
C85          H88   1.081       .  S
C86          C87   1.379   1_554  A
C87          H89   1.080       .  S
N90          N91   1.332   1_554  A
N90          C94   1.346       .  A
N91          C92   1.346       .  A
C92          C93   1.380   1_556  A
C92          H95   1.082       .  S
C93          C94   1.381       .  A
C93         C430   1.478       .  S
C94          H96   1.082       .  S
N97          N98   1.315       .  A
N97         C101   1.358       .  A
N97        Cu105   2.093       .  S
N98          C99   1.330       .  A
N98        Cu104   2.030       .  S
C99         C100   1.378       .  A
C99         H102   1.080       .  S
C100        C101   1.397       .  A
C100        C134   1.479   1_455  S
C101        H103   1.081       .  S
Cu104       N107   2.030       .  S
Cu105       N115   2.102       .  S
Cu106       N108   2.085       .  S
Cu106       N114   2.094       .  S
N107        N108   1.315   1_455  A
N107        C111   1.330       .  A
N108        C109   1.357       .  A
C109        C110   1.395   1_655  A
C109        H112   1.081       .  S
C110        C111   1.378       .  A
C110        C182   1.476       .  S
C111        H113   1.080       .  S
N114        N115   1.330   1_655  A
N114        C118   1.344       .  A
N115        C116   1.345       .  A
C116        C117   1.385       .  A
C116        H119   1.082       .  S
C117        C118   1.383   1_455  A
C117        C415   1.486       .  S
C118        H120   1.080       .  S
N121        N122   1.316   1_455  A
N121        C125   1.357       .  A
N121       Cu129   2.086       .  S
N122        C123   1.330       .  A
N122       Cu128   2.034       .  S
C123        C124   1.379       .  A
C123        H126   1.080       .  S
C124        C125   1.395   1_655  A
C124        C148   1.477       .  S
C125        H127   1.081       .  S
Cu128       N131   2.034       .  S
Cu129       N139   2.094       .  S
Cu130       N132   2.089       .  S
Cu130       N138   2.098   1_655  S
N131        N132   1.316       .  A
N131        C135   1.331       .  A
N132        C133   1.358   1_655  A
C133        C134   1.396   1_455  A
C133        H136   1.081       .  S
C134        C135   1.379       .  A
C135        H137   1.080       .  S
N138        N139   1.330       .  A
N138        C142   1.345   1_455  A
N139        C140   1.344       .  A
C140        C141   1.383   1_455  A
C140        H143   1.081       .  S
C141        C142   1.384       .  A
C141        C403   1.484       .  S
C142        H144   1.082       .  S
N145        N146   1.316       .  A
N145        C149   1.358       .  A
N145       Cu153   2.093       .  S
N146        C147   1.330       .  A
N146       Cu152   2.027       .  S
C147        C148   1.377       .  A
C147        H150   1.080       .  S
C148        C149   1.397       .  A
C149        H151   1.081       .  S
Cu152       N155   2.027       .  S
Cu153       N163   2.102       .  S
Cu154       N156   2.083       .  S
Cu154       N162   2.091       .  S
N155        N156   1.315   1_655  A
N155        C159   1.330       .  A
N156        C157   1.356       .  A
C157        C158   1.394       .  A
C157        H160   1.081       .  S
C158        C159   1.378   1_455  A
C158        C172   1.474       .  S
C159        H161   1.081       .  S
N162        N163   1.330   1_455  A
N162        C166   1.343       .  A
N163        C164   1.345       .  A
C164        C165   1.386       .  A
C164        H167   1.082       .  S
C165        C166   1.384   1_655  A
C165        C391   1.488       .  S
C166        H168   1.080       .  S
N169        N170   1.315   1_655  A
N169        C173   1.356       .  A
N169       Cu177   2.083       .  S
N170        C171   1.330       .  A
N170       Cu176   2.028       .  S
C171        C172   1.378       .  A
C171        H174   1.081       .  S
C172        C173   1.394   1_455  A
C173        H175   1.081       .  S
Cu176       N179   2.027       .  S
Cu177       N187   2.092       .  S
Cu178       N180   2.088       .  S
Cu178       N186   2.097       .  S
N179        N180   1.315       .  A
N179        C183   1.330       .  A
N180        C181   1.357       .  A
C181        C182   1.396       .  A
C181        H184   1.081   1_455  S
C182        C183   1.378       .  A
C183        H185   1.080       .  S
N186        N187   1.330   1_455  A
N186        C190   1.344       .  A
N187        C188   1.344       .  A
C188        C189   1.383   1_655  A
C188        H191   1.081       .  S
C189        C190   1.384       .  A
C189        C379   1.484       .  S
C190        H192   1.082       .  S
N193        N194   1.315       .  A
N193        C197   1.358       .  A
N193       Cu201   2.091       .  S
N194        C195   1.330       .  A
N194       Cu200   2.027       .  S
C195        C196   1.378       .  A
C195        H198   1.080       .  S
C196        C197   1.397       .  A
C196        C268   1.478       .  S
C197        H199   1.082       .  S
Cu200       N203   2.027       .  S
Cu201       N211   2.100       .  S
Cu202       N204   2.091       .  S
Cu202       N210   2.100       .  S
N203        N204   1.315       .  A
N203        C207   1.330       .  A
N204        C205   1.358       .  A
C205        C206   1.397       .  A
C205        H208   1.081       .  S
C206        C207   1.378       .  A
C206        C220   1.478       .  S
C207        H209   1.080       .  S
N210        N211   1.332       .  A
N210        C214   1.346       .  A
N211        C212   1.345       .  A
C212        C213   1.381       .  A
C212        H215   1.082       .  S
C213        C214   1.381       .  A
C213        C367   1.479       .  S
C214        H216   1.082       .  S
N217        N218   1.316       .  A
N217        C221   1.357       .  A
N217       Cu225   2.087       .  S
N218        C219   1.331       .  A
N218       Cu224   2.034       .  S
C219        C220   1.379       .  A
C219        H222   1.080       .  S
C220        C221   1.395       .  A
C221        H223   1.081       .  S
Cu224       N227   2.034       .  S
Cu225       N235   2.095       .  S
Cu226       N228   2.088       .  S
Cu226       N234   2.097       .  S
N227        N228   1.316       .  A
N227        C231   1.330       .  A
N228        C229   1.357       .  A
C229        C230   1.395       .  A
C229        H232   1.082       .  S
C230        C231   1.379       .  A
C230        C254   1.478       .  S
C231        H233   1.081       .  S
N234        N235   1.330       .  A
N234        C238   1.345       .  A
N235        C236   1.345       .  A
C236        C237   1.384       .  A
C236        H239   1.081       .  S
C237        C238   1.384       .  A
C237        C355   1.485       .  S
C238        H240   1.082       .  S
N241        N242   1.315       .  A
N241        C245   1.358       .  A
N241       Cu249   2.091       .  S
N242        C243   1.330       .  A
N242       Cu248   2.028       .  S
C243        C244   1.378       .  A
C243        H246   1.080       .  S
C244        C245   1.396       .  A
C244        C278   1.478       .  S
C245        H247   1.081       .  S
Cu248       N251   2.028       .  S
Cu249       N259   2.100       .  S
Cu250       N252   2.091       .  S
Cu250       N258   2.100       .  S
N251        N252   1.315       .  A
N251        C255   1.330       .  A
N252        C253   1.358       .  A
C253        C254   1.397       .  A
C253        H256   1.082       .  S
C254        C255   1.378       .  A
C255        H257   1.080       .  S
N258        N259   1.331       .  A
N258        C262   1.346       .  A
N259        C260   1.345       .  A
C260        C261   1.382       .  A
C260        H263   1.082       .  S
C261        C262   1.381       .  A
C261        C343   1.480       .  S
C262        H264   1.082       .  S
N265        N266   1.316       .  A
N265        C269   1.357       .  A
N265       Cu273   2.088       .  S
N266        C267   1.330       .  A
N266       Cu272   2.034       .  S
C267        C268   1.379       .  A
C267        H270   1.080       .  S
C268        C269   1.396       .  A
C269        H271   1.082       .  S
Cu272       N275   2.034       .  S
Cu273       N283   2.096       .  S
Cu274       N276   2.089       .  S
Cu274       N282   2.096       .  S
N275        N276   1.316       .  A
N275        C279   1.331       .  A
N276        C277   1.357       .  A
C277        C278   1.395       .  A
C277        H280   1.081       .  S
C278        C279   1.379       .  A
C279        H281   1.080       .  S
N282        N283   1.329       .  A
N282        C286   1.345       .  A
N283        C284   1.344       .  A
C284        C285   1.385       .  A
C284        H287   1.082       .  S
C285        C286   1.385       .  A
C285        C334   1.488       .  S
C286        H288   1.080       .  S
O289       Cu297   2.005   1_565  S
O289        C299   1.278       .  A
O290       Cu297   2.005       .  S
O290        C300   1.278       .  A
O291       Cu297   2.008       .  S
O291        C301   1.279       .  A
O292       Cu297   2.007   1_655  S
O292        C302   1.277       .  A
O293       Cu298   2.005   1_655  S
O293        C302   1.278       .  A
O294       Cu298   2.005       .  S
O294        C301   1.276       .  A
O295       Cu298   2.003       .  S
O295        C300   1.277       .  A
O296       Cu298   2.005   1_565  S
O296        C299   1.277       .  A
Cu297      Cu298   2.368       .  S
C299        C406   1.481       .  S
C300        C382   1.481   1_455  S
C301        C331   1.488       .  S
C302        C358   1.482       .  S
O303       Cu311   2.008   1_564  S
O303        C313   1.277   1_554  A
O304       Cu311   2.010       .  S
O304        C314   1.277   1_556  A
O305       Cu311   2.010       .  S
O305        C315   1.278       .  A
O306       Cu311   2.008   1_554  S
O306        C316   1.278       .  A
O307       Cu312   2.006   1_554  S
O307        C316   1.278       .  A
O308       Cu312   2.006       .  S
O308        C315   1.277       .  A
O309       Cu312   2.013   1_554  S
O309        C314   1.278       .  A
O310       Cu312   2.012   1_565  S
O310        C313   1.278       .  A
Cu311      Cu312   2.374       .  S
C313        C463   1.471       .  S
C314        C442   1.470       .  S
C315        C370   1.475       .  S
C316        C346   1.476       .  S
O317       Cu325   2.009   1_655  S
O317        C327   1.279       .  A
O318       Cu325   2.009   1_554  S
O318        C328   1.279       .  A
O319       Cu325   2.007   1_655  S
O319        C329   1.277   1_556  A
O320       Cu325   2.007       .  S
O320        C330   1.277       .  A
O321       Cu326   2.011       .  S
O321        C330   1.278       .  A
O322       Cu326   2.010   1_654  S
O322        C329   1.277       .  A
O323       Cu326   2.003   1_554  S
O323        C328   1.276       .  A
O324       Cu326   2.003   1_655  S
O324        C327   1.277       .  A
Cu325      Cu326   2.372       .  S
C327        C418   1.485       .  S
C328        C394   1.485       .  S
C329        C451   1.469       .  S
C330        C427   1.473       .  S
C331        C332   1.406       .  A
C331        C336   1.417       .  A
C332        C333   1.399       .  A
C332        H341   1.083       .  S
C333        C334   1.417       .  A
C333        S337   1.802       .  S
C334        C335   1.405       .  A
C335        C336   1.398       .  A
C335        H342   1.083   1_545  S
C336        S338   1.800   1_545  S
S337        H340   1.407       .  S
S338        H339   1.408   1_565  S
C343        C344   1.404   1_545  A
C343        C348   1.414       .  A
C344        C345   1.400       .  A
C344        H353   1.084       .  S
C345        C346   1.413   1_565  A
C345        S349   1.804       .  S
C346        C347   1.403       .  A
C347        C348   1.399       .  A
C347        H354   1.084       .  S
C348        S350   1.803       .  S
S349        H352   1.407       .  S
S350        H351   1.407       .  S
C355        C356   1.405       .  A
C355        C360   1.416   1_545  A
C356        C357   1.399       .  A
C356        H365   1.083       .  S
C357        C358   1.415       .  A
C357        S361   1.803       .  S
C358        C359   1.404       .  A
C359        C360   1.398   1_545  A
C359        H366   1.084   1_545  S
C360        S362   1.802       .  S
S361        H364   1.408       .  S
S362        H363   1.407       .  S
C367        C368   1.404       .  A
C367        C372   1.414   1_545  A
C368        C369   1.400       .  A
C368        H377   1.084       .  S
C369        C370   1.413       .  A
C369        S373   1.804       .  S
C370        C371   1.403   1_545  A
C371        C372   1.399       .  A
C371        H378   1.084       .  S
C372        S374   1.803       .  S
S373        H376   1.406       .  S
S374        H375   1.407       .  S
C379        C380   1.404   1_455  A
C379        C384   1.416       .  A
C380        C381   1.398       .  A
C380        H389   1.083       .  S
C381        C382   1.415       .  A
C381        S385   1.803       .  S
C382        C383   1.404   1_655  A
C383        C384   1.398       .  A
C383        H390   1.084       .  S
C384        S386   1.802       .  S
S385        H388   1.408       .  S
S386        H387   1.407       .  S
C391        C392   1.405   1_655  A
C391        C396   1.417       .  A
C392        C393   1.398       .  A
C392        H401   1.083       .  S
C393        C394   1.416       .  A
C393        S397   1.803       .  S
C394        C395   1.405   1_455  A
C395        C396   1.403       .  A
C395        H402   1.082       .  S
C396        S398   1.808       .  S
S397        H400   1.408       .  S
S398        H399   1.407       .  S
C403        C404   1.405   1_655  A
C403        C408   1.416       .  A
C404        C405   1.398       .  A
C404        H413   1.083       .  S
C405        C406   1.415       .  A
C405        S409   1.803       .  S
C406        C407   1.404   1_455  A
C407        C408   1.398       .  A
C407        H414   1.084       .  S
C408        S410   1.802       .  S
S409        H412   1.407       .  S
S410        H411   1.407       .  S
C415        C416   1.405   1_455  A
C415        C420   1.417       .  A
C416        C417   1.399       .  A
C416        H425   1.083       .  S
C417        C418   1.416       .  A
C417        S421   1.803       .  S
C418        C419   1.405   1_655  A
C419        C420   1.399       .  A
C419        H426   1.084       .  S
C420        S422   1.802       .  S
S421        H424   1.408       .  S
S422        H423   1.407       .  S
C427        C428   1.402   1_556  A
C427        C432   1.412       .  A
C428        C429   1.399       .  A
C428        H437   1.084       .  S
C429        C430   1.414       .  A
C429        S433   1.803       .  S
C430        C431   1.404   1_554  A
C431        C432   1.400       .  A
C431        H438   1.084       .  S
C432        S434   1.804       .  S
S433        H436   1.407       .  S
S434        H435   1.407       .  S
C439        C440   1.402   1_556  A
C439        C444   1.411       .  A
C440        C441   1.401       .  A
C440        H449   1.084       .  S
C441        C442   1.413       .  A
C441        S445   1.806       .  S
C442        C443   1.402   1_554  A
C443        C444   1.399       .  A
C443        H450   1.084       .  S
C444        S446   1.803       .  S
S445        H448   1.403       .  S
S446        H447   1.406       .  S
C451        C452   1.401   1_554  A
C451        C456   1.411       .  A
C452        C453   1.399       .  A
C452        H461   1.084       .  S
C453        C454   1.412       .  A
C453        S457   1.803       .  S
C454        C455   1.403   1_556  A
C455        C456   1.400       .  A
C455        H462   1.084       .  S
C456        S458   1.804       .  S
S457        H460   1.406       .  S
S458        H459   1.406       .  S
C463        C464   1.402   1_556  A
C463        C468   1.412       .  A
C464        C465   1.400       .  A
C464        H473   1.084       .  S
C465        C466   1.412       .  A
C465        S469   1.803       .  S
C466        C467   1.403   1_554  A
C467        C468   1.401       .  A
C467        H474   1.084       .  S
C468        S470   1.804       .  S
S469        H472   1.406       .  S
S470        H471   1.406       .  S
