geometry optimzed in LAMMPS
_audit_creation_date              2020-11-30 
_audit_creation_method            'lammps2cif' 
_symmetry_space_group_name_H-M    'P1' 
_symmetry_Int_Tables_number       1 
_symmetry_cell_setting            triclinic 
loop_ 
_symmetry_equiv_pos_as_xyz 
  x,y,z 
_cell_length_a                    51.01633814 
_cell_length_b                    50.76036819985905 
_cell_length_c                    31.758630990410115 
_cell_angle_alpha                 90.10464686923923 
_cell_angle_beta                  90.63171712163471 
_cell_angle_gamma                 89.71101123076905 
loop_ 
_atom_site_label 
_atom_site_type_symbol 
_atom_site_fract_x 
_atom_site_fract_y 
_atom_site_fract_z 
_atom_site_charge 
N1          N  0.45188806  0.99717299  0.70504181    -0.27100
N2          N  0.43219032  0.99282687  0.73067110    -0.34900
C3          C  0.44149581  0.99234787  0.77055642     0.01300
C4          C  0.46840695  0.99674493  0.76992185     0.07300
C5          C  0.47412896  0.99968001  0.72764178    -0.05800
H6          H  0.42969885  0.98783774  0.79765524     0.08000
H7          H  0.49322417  0.00258261  0.71398328     0.09200
Cu8        Cu  0.39408412  0.98655738  0.70827573     0.44200
Cu9        Cu  0.44837337  0.99594037  0.64031198     0.42000
Cu10       Cu  0.38658722  0.97605138  0.59399492     0.43900
N11         N  0.35814060  0.98275732  0.67668202    -0.34500
N12         N  0.35533018  0.97867838  0.63573377    -0.28700
C13         C  0.32954242  0.97813441  0.62605106    -0.04800
C14         C  0.31523574  0.98203377  0.66256085     0.07400
C15         C  0.33426536  0.98505689  0.69390197     0.01200
H16         H  0.32180511  0.97526306  0.59454289     0.08800
H17         H  0.33127738  0.98958302  0.72674719     0.07900
N18         N  0.42126344  0.97886903  0.56004660    -0.35900
N19         N  0.44340963  0.98724794  0.57725840    -0.28100
C20         C  0.46228569  0.98706779  0.54818689    -0.03300
C21         C  0.45168521  0.97819556  0.51053895     0.05300
C22         C  0.42562032  0.97293235  0.51929722     0.03400
H23         H  0.48256216  0.99191944  0.55462419     0.08500
H24         H  0.41098533  0.96519065  0.49776286     0.07300
N25         N  0.58713679  0.93466002  0.20469977    -0.27100
N26         N  0.60655289  0.92928551  0.23104258    -0.34900
C27         C  0.59711931  0.92929740  0.27058716     0.01300
C28         C  0.57036807  0.93501958  0.26859834     0.07300
C29         C  0.56495179  0.93815365  0.22612789    -0.05800
H30         H  0.60911570  0.92674533  0.29857374     0.08000
H31         H  0.54637995  0.94345851  0.21166178     0.09200
Cu32       Cu  0.64448892  0.92463889  0.20845345     0.44200
Cu33       Cu  0.59212264  0.94040063  0.14155559     0.42000
Cu34       Cu  0.65522005  0.94248030  0.09451275     0.43900
N35         N  0.67970738  0.92153146  0.17600130    -0.34500
N36         N  0.68387374  0.92821618  0.13632590    -0.28700
C37         C  0.70929503  0.92372813  0.12743210    -0.04800
C38         C  0.72173960  0.91354419  0.16300873     0.07400
C39         C  0.70222728  0.91254420  0.19299714     0.01200
H40         H  0.71805182  0.92821600  0.09746729     0.08800
H41         H  0.70414671  0.90576629  0.22515195     0.07900
N42         N  0.62072540  0.95163150  0.06148572    -0.35900
N43         N  0.59764680  0.94985658  0.07969831    -0.28100
C44         C  0.57859356  0.95525363  0.05166683    -0.03300
C45         C  0.59004226  0.96087701  0.01376884     0.05300
C46         C  0.61685475  0.95853813  0.02082267     0.03400
H47         H  0.55785422  0.95500505  0.05841726     0.08500
H48         H  0.63223007  0.96094655  0.99798105     0.07300
N49         N  0.95736634  0.87054686  0.95257352    -0.03300
C50         C  0.94565248  0.84673394  0.94719892    -0.00700
C51         C  0.93526828  0.84451681  0.90707881    -0.23600
C52         C  0.94097252  0.86749600  0.88666107    -0.23800
C53         C  0.95478572  0.88316891  0.91484135    -0.00800
H54         H  0.92660922  0.82713766  0.89299026     0.13000
H55         H  0.93757802  0.87127809  0.85351332     0.13000
N56         N  0.92943858  0.89740444  0.25345445    -0.03300
C57         C  0.90569243  0.88601526  0.25860346    -0.00700
C58         C  0.90287757  0.87719761  0.29926027    -0.23600
C59         C  0.92562950  0.88354098  0.32020250    -0.23800
C60         C  0.94167689  0.89623571  0.29173750    -0.00800
H61         H  0.88531676  0.86925448  0.31310151     0.13000
H62         H  0.92900661  0.88157398  0.35376362     0.13000
N63         N  0.07686174  0.04026525  0.43748638    -0.03300
C64         C  0.08819005  0.06404245  0.43021989    -0.00700
C65         C  0.09123224  0.06777452  0.38741826    -0.23600
C66         C  0.08147150  0.04582673  0.36773528    -0.23800
C67         C  0.07260868  0.02926246  0.39890824    -0.00800
H68         H  0.09758379  0.08554982  0.37186944     0.13000
H69         H  0.07878964  0.04331321  0.33411165     0.13000
N70         N  0.10209606  0.98389145  0.73026050    -0.03300
C71         C  0.12755719  0.99017658  0.73849155    -0.00700
C72         C  0.13117850  0.99615427  0.78048554    -0.23600
C73         C  0.10719033  0.99385676  0.79902774    -0.23800
C74         C  0.08956637  0.98636369  0.76783212    -0.00800
H75         H  0.14952639  0.00078547  0.79617938     0.13000
H76         H  0.10329776  0.99598206  0.83230012     0.13000
N77         N  0.04686146  0.37948485  0.44114976    -0.27100
N78         N  0.05319791  0.35824956  0.41946241    -0.34900
C79         C  0.05456904  0.36487502  0.37838343     0.01300
C80         C  0.04923348  0.39166998  0.37490163     0.07300
C81         C  0.04421647  0.40008903  0.41526682    -0.05800
H82         H  0.05976595  0.35148153  0.35325750     0.08000
H83         H  0.03922824  0.41985403  0.42530195     0.09200
Cu84       Cu  0.06053433  0.32264353  0.45038436     0.44200
Cu85       Cu  0.04398952  0.38046412  0.50497351     0.42000
Cu86       Cu  0.05788715  0.32435820  0.56862161     0.43900
N87         N  0.06614753  0.29037206  0.49041098    -0.34500
N88         N  0.06560365  0.29085470  0.53216133    -0.28700
C89         C  0.06930891  0.26613723  0.54670487    -0.04800
C90         C  0.07193544  0.24932819  0.51263454     0.07400
C91         C  0.06990024  0.26538003  0.47758683     0.01200
H92         H  0.06893907  0.26064356  0.57958912     0.08800
H93         H  0.07053858  0.25923322  0.44497413     0.07900
N94         N  0.04994628  0.36163018  0.59370733    -0.35900
N95         N  0.04532024  0.38203444  0.56897787    -0.28100
C96         C  0.04175758  0.40372226  0.59221997    -0.03300
C97         C  0.04390223  0.39687107  0.63402471     0.05300
C98         C  0.04906923  0.36993189  0.63406082     0.03400
H99         H  0.03743979  0.42303873  0.57947181     0.08500
H100        H  0.05223606  0.35742701  0.66120198     0.07300
N101        N  0.00323022  0.52900414  0.93941641    -0.27100
N102        N  0.99412097  0.54976321  0.91891244    -0.34900
C103        C  0.99469242  0.54469559  0.87725850     0.01300
C104        C  0.00495337  0.51962545  0.87194466     0.07300
C105        C  0.01009267  0.51028434  0.91186504    -0.05800
H106        H  0.98933908  0.55860069  0.85282477     0.08000
H107        H  0.01890672  0.49155700  0.92025807     0.09200
Cu108      Cu  0.98504987  0.58428707  0.95056304     0.44200
Cu109      Cu  0.00818540  0.52777857  0.00337006     0.42000
Cu110      Cu  0.99970878  0.58562771  0.06625189     0.43900
N111        N  0.98256243  0.61721116  0.98912611    -0.34500
N112        N  0.98793150  0.61806575  0.03001903    -0.28700
C113        C  0.98554429  0.64318901  0.04333684    -0.04800
C114        C  0.97869979  0.65884911  0.00918782     0.07400
C115        C  0.97674322  0.64159970  0.97555700     0.01200
H116        H  0.98935554  0.64970550  0.07526214     0.08800
H117        H  0.97170465  0.64637108  0.94328134     0.07900
N118        N  0.01159676  0.54937302  0.09128409    -0.35900
N119        N  0.01454651  0.52843188  0.06705922    -0.28100
C120        C  0.02201989  0.50779650  0.09051407    -0.03300
C121        C  0.02421356  0.51589541  0.13189246     0.05300
C122        C  0.01715544  0.54241217  0.13141428     0.03400
H123        H  0.02486795  0.48811687  0.07822494     0.08500
H124        H  0.01609812  0.55558825  0.15815906     0.07300
C125        C  0.01166229  0.50603797  0.83268484    -0.19700
C126        C  0.03780353  0.49853134  0.82494267     0.36600
C127        C  0.04326442  0.48203531  0.79068056    -0.25600
C128        C  0.02301892  0.47276631  0.76457850     0.03000
C129        C  0.99697665  0.48106723  0.77136316     0.27800
C130        C  0.99154337  0.49788559  0.80538103    -0.24800
N131        N  0.05855034  0.50723446  0.85255657    -0.82100
H132        H  0.06322760  0.47563647  0.78509206     0.13600
C133        C  0.02926962  0.45324854  0.73165905     0.03000
N134        N  0.97619309  0.47182980  0.74430244    -0.80700
H135        H  0.97149627  0.50366942  0.81176648     0.18400
C136        C  0.01990031  0.42746811  0.73568707    -0.25600
C137        C  0.02514134  0.40830768  0.70491326     0.36500
C138        C  0.04022776  0.41517865  0.66968850    -0.19600
C139        C  0.05008297  0.44089985  0.66629341    -0.24800
C140        C  0.04475208  0.46003334  0.69698514     0.27800
H141        H  0.00818618  0.42242746  0.76274270     0.13600
N142        N  0.01446112  0.38228273  0.70862883    -0.82100
H143        H  0.06170990  0.44616802  0.63925572     0.18400
N144        N  0.05465603  0.48636890  0.69289416    -0.80700
H145        H  0.00403098  0.38046656  0.73661647     0.34100
H146        H  0.00089172  0.37975246  0.68404945     0.38600
H147        H  0.06582455  0.48808370  0.66564678     0.34000
H148        H  0.03856554  0.49902919  0.68913522     0.30700
H149        H  0.95816373  0.47952063  0.75387244     0.34000
H150        H  0.97955260  0.47921132  0.71413025     0.30700
H151        H  0.05962007  0.52774774  0.85009460     0.38600
H152        H  0.07660486  0.49977564  0.84269313     0.34100
C153        C  0.04891846  0.40858439  0.33716085    -0.19700
C154        C  0.06029814  0.43389663  0.33856507     0.36600
C155        C  0.05621784  0.45126867  0.30485774    -0.25600
C156        C  0.04149354  0.44365066  0.26954726     0.03000
C157        C  0.03122395  0.41793814  0.26702773     0.27800
C158        C  0.03513116  0.40052431  0.30097607    -0.24800
N159        N  0.07605647  0.44178480  0.37418304    -0.82100
H160        H  0.06456308  0.47085531  0.30600206     0.13600
C161        C  0.03744798  0.46283288  0.23516588     0.03000
N162        N  0.01650235  0.40987513  0.23041109    -0.80700
H163        H  0.02649037  0.38107242  0.29997319     0.18400
C164        C  0.05113286  0.45935662  0.19767808    -0.25600
C165        C  0.04828174  0.47734665  0.16445580     0.36500
C166        C  0.03059493  0.49877047  0.16837694    -0.19600
C167        C  0.01760991  0.50272618  0.20664021    -0.24800
C168        C  0.02092049  0.48492854  0.24019903     0.27800
H169        H  0.06437038  0.44270866  0.19464201     0.13600
N170        N  0.06363160  0.47417171  0.12707905    -0.82100
H171        H  0.00420709  0.51920576  0.20989275     0.18400
N172        N  0.00738673  0.48896396  0.27916558    -0.80700
H173        H  0.07562057  0.45745397  0.12930426     0.34100
H174        H  0.07613590  0.49037575  0.12518609     0.38600
H175        H  0.99613430  0.50621956  0.27788114     0.34000
H176        H  0.99427491  0.47338239  0.28278188     0.30700
H177        H  0.01037977  0.39035683  0.23347972     0.34000
H178        H  0.99951582  0.42147095  0.22889009     0.30700
H179        H  0.09254418  0.42947178  0.37520073     0.38600
H180        H  0.08296568  0.46097193  0.37025193     0.34100
C181        C  0.07371356  0.22017240  0.51293182    -0.19700
C182        C  0.05578178  0.20491589  0.48931333     0.36600
C183        C  0.05920252  0.17746102  0.48701072    -0.25600
C184        C  0.08018933  0.16488339  0.50781581     0.03000
C185        C  0.09744945  0.17997205  0.53303192     0.27800
C186        C  0.09393614  0.20752745  0.53558670    -0.24800
N187        N  0.03426080  0.21743880  0.46749876    -0.82100
H188        H  0.04598415  0.16587931  0.46758382     0.13600
C189        C  0.08532898  0.13658951  0.49835464     0.03000
N190        N  0.11869522  0.16727225  0.55521394    -0.80700
H191        H  0.10752292  0.21926942  0.55406825     0.18400
C192        C  0.10785525  0.12993403  0.47572737    -0.25600
C193        C  0.11059601  0.10496941  0.45699185     0.36500
C194        C  0.09030915  0.08628649  0.46075559    -0.19600
C195        C  0.06908564  0.09201023  0.48714524    -0.24800
C196        C  0.06638489  0.11704965  0.50595890     0.27800
H197        H  0.12252646  0.14486829  0.47023454     0.13600
N198        N  0.13323152  0.09899143  0.43209827    -0.82100
H199        H  0.05349289  0.07780023  0.49030886     0.18400
N200        N  0.04387769  0.12319836  0.53101596    -0.80700
H201        H  0.14612951  0.11492058  0.43188036     0.34100
H202        H  0.14317664  0.08337106  0.44672552     0.38600
H203        H  0.03168580  0.10677884  0.53339373     0.34000
H204        H  0.05060572  0.12738782  0.56149739     0.30700
H205        H  0.12967912  0.18110189  0.57217584     0.34000
H206        H  0.11051245  0.15457356  0.57732019     0.30700
H207        H  0.02289863  0.20347560  0.45146670     0.38600
H208        H  0.02215985  0.22596040  0.49017050     0.34100
C209        C  0.09030236  0.98414910  0.68869609    -0.19700
C210        C  0.09851655  0.96644908  0.65720889     0.36600
C211        C  0.09283752  0.97184536  0.61465743    -0.25600
C212        C  0.07857709  0.99446606  0.60309025     0.03000
C213        C  0.06777960  0.01055192  0.63484544     0.27800
C214        C  0.07373078  0.00518565  0.67739603    -0.24800
N215        N  0.11290320  0.94317524  0.66831126    -0.82100
H216        H  0.10065249  0.95903351  0.59046655     0.13600
C217        C  0.07835800  0.00337834  0.55846212     0.03000
N218        N  0.05204376  0.03309781  0.62363968    -0.80700
H219        H  0.06713144  0.01862613  0.70163637     0.18400
C220        C  0.05468468  0.00503343  0.53558874    -0.25600
C221        C  0.05363734  0.01682196  0.49536306     0.36500
C222        C  0.07678639  0.02685117  0.47762813    -0.19600
C223        C  0.10052204  0.02439453  0.50009618    -0.24800
C224        C  0.10155977  0.01293334  0.54031674     0.27800
H225        H  0.03687093  0.99790848  0.54981224     0.13600
N226        N  0.02907660  0.01952274  0.47331825    -0.82100
H227        H  0.11827497  0.03199380  0.48631072     0.18400
N228        N  0.12596831  0.01161896  0.56336455    -0.80700
H229        H  0.01400238  0.01084515  0.49036962     0.34100
H230        H  0.02472042  0.03963449  0.47154665     0.38600
H231        H  0.14120318  0.01935684  0.54552699     0.34000
H232        H  0.12423613  0.02370548  0.58989947     0.30700
H233        H  0.04543356  0.04275395  0.65065613     0.34000
H234        H  0.06403776  0.04639633  0.60786568     0.30700
H235        H  0.10195087  0.92692932  0.65832370     0.38600
H236        H  0.13032361  0.94305712  0.65128166     0.34100
C237        C  0.96245748  0.91459432  0.30676941    -0.19700
C238        C  0.98816183  0.91478349  0.29079858     0.36600
C239        C  0.00685545  0.93224625  0.30836796    -0.25600
C240        C  0.00039225  0.94897482  0.34211934     0.03000
C241        C  0.97492788  0.94817402  0.35851213     0.27800
C242        C  0.95626472  0.93138749  0.34055538    -0.24800
N243        N  0.99535435  0.89702005  0.25762165    -0.82100
H244        H  0.02644603  0.93293773  0.29561629     0.13600
C245        C  0.01942873  0.96878282  0.35827014     0.03000
N246        N  0.96801882  0.96430034  0.39382705    -0.80700
H247        H  0.93667431  0.93142535  0.35343461     0.18400
C248        C  0.01235032  0.99544816  0.35591633    -0.25600
C249        C  0.02909800  0.01518222  0.37094385     0.36500
C250        C  0.05358077  0.00820556  0.38892935    -0.19600
C251        C  0.06081639  0.98155923  0.39163595    -0.24800
C252        C  0.04388894  0.96166862  0.37637085     0.27800
H253        H  0.99369224  0.00090067  0.34169995     0.13600
N254        N  0.02169390  0.04246365  0.36690561    -0.82100
H255        H  0.07986568  0.97637187  0.40466062     0.18400
N256        N  0.05144126  0.93440843  0.37890852    -0.80700
H257        H  0.00323845  0.04428506  0.35254835     0.34100
H258        H  0.01999187  0.05032562  0.39718782     0.38600
H259        H  0.07005000  0.93253344  0.39271987     0.34000
H260        H  0.03834519  0.92505577  0.39902267     0.30700
H261        H  0.95221690  0.97630819  0.38486881     0.34000
H262        H  0.96179058  0.95194891  0.41801884     0.30700
H263        H  0.99429094  0.87791307  0.26965058     0.38600
H264        H  0.01486252  0.89993404  0.24910262     0.34100
C265        C  0.95001568  0.82321240  0.97402412    -0.19700
C266        C  0.92915794  0.80614258  0.98358496     0.36600
C267        C  0.93469072  0.78036732  0.99758033    -0.25600
C268        C  0.96066750  0.77149673  0.00211058     0.03000
C269        C  0.98140130  0.78926574  0.99597085     0.27800
C270        C  0.97588299  0.81476366  0.98123487    -0.24800
N271        N  0.90254235  0.81455201  0.97643821    -0.82100
H272        H  0.91878770  0.76664126  0.00223470     0.13600
C273        C  0.96606598  0.74283289  0.00606284     0.03000
N274        N  0.00806023  0.78074174  0.00237276    -0.80700
H275        H  0.99194209  0.82714953  0.97173017     0.18400
C276        C  0.97891074  0.73012913  0.97285798    -0.25600
C277        C  0.98379581  0.70292234  0.97366198     0.36500
C278        C  0.97520462  0.68788241  0.00823752    -0.19600
C279        C  0.96279911  0.70068625  0.04195097    -0.24800
C280        C  0.95806397  0.72806819  0.04113039     0.27800
H281        H  0.98504313  0.74157780  0.94595657     0.13600
N282        N  0.99780787  0.69065537  0.93976218    -0.82100
H283        H  0.95633039  0.68921717  0.06859347     0.18400
N284        N  0.94514602  0.74091957  0.07555639    -0.80700
H285        H  0.00253719  0.70447407  0.91671711     0.34100
H286        H  0.01557251  0.68357168  0.95208796     0.38600
H287        H  0.94044786  0.72726208  0.09885962     0.34000
H288        H  0.95849122  0.75406369  0.08919288     0.30700
H289        H  0.02103687  0.79609261  0.99614702     0.34000
H290        H  0.01037233  0.77619444  0.03430178     0.30700
H291        H  0.89886104  0.83026743  0.99690432     0.38600
H292        H  0.88950854  0.79957306  0.98436482     0.34100
C293        C  0.97062398  0.90583703  0.89965777    -0.19700
C294        C  0.99782634  0.90725576  0.90769100     0.36600
C295        C  0.01347174  0.92419507  0.88377050    -0.25600
C296        C  0.00274017  0.93931048  0.85083064     0.03000
C297        C  0.97533326  0.93880360  0.84361308     0.27800
C298        C  0.95968055  0.92233947  0.86837418    -0.24800
N299        N  0.01010199  0.89002207  0.93760838    -0.82100
H300        H  0.03446198  0.92444604  0.88944739     0.13600
C301        C  0.02106656  0.95368853  0.82303596     0.03000
N302        N  0.96287594  0.95352245  0.81024604    -0.80700
H303        H  0.93888870  0.92119463  0.86124951     0.18400
C304        C  0.03388730  0.93986035  0.79088313    -0.25600
C305        C  0.05472488  0.95127571  0.76881280     0.36500
C306        C  0.06280012  0.97709346  0.77864185    -0.19600
C307        C  0.04848675  0.99158414  0.80859063    -0.24800
C308        C  0.02779684  0.98009627  0.83102706     0.27800
H309        H  0.02870182  0.91954081  0.78459293     0.13600
N310        N  0.06896662  0.93578593  0.73903476    -0.82100
H311        H  0.05471552  0.01136527  0.81660674     0.18400
N312        N  0.01468634  0.99454605  0.86364210    -0.80700
H313        H  0.07619903  0.91902234  0.75442857     0.34100
H314        H  0.05584696  0.92966027  0.71552391     0.38600
H315        H  0.02234583  0.01355637  0.86628907     0.34000
H316        H  0.99505888  0.99671947  0.85447227     0.30700
H317        H  0.94992592  0.96691816  0.82409586     0.34000
H318        H  0.97634188  0.96464960  0.79345192     0.30700
H319        H  0.02389835  0.87845330  0.92184183     0.38600
H320        H  0.02009362  0.90159129  0.95975164     0.34100
C321        C  0.96018561  0.88287566  0.99351755    -0.19700
C322        C  0.93963183  0.89849869  0.00977039     0.36600
C323        C  0.93958211  0.90517426  0.05290336    -0.25600
C324        C  0.95954238  0.89629211  0.08028256     0.03000
C325        C  0.98104040  0.88238192  0.06339483     0.27800
C326        C  0.98110002  0.87579798  0.02031632    -0.24800
N327        N  0.91820785  0.90636849  0.98277250    -0.82100
H328        H  0.92300058  0.91578769  0.06573028     0.13600
C329        C  0.95574392  0.89806317  0.12680194     0.03000
N330        N  0.00228960  0.87417903  0.09050189    -0.80700
H331        H  0.99718558  0.86436749  0.00803119     0.18400
C332        C  0.95505203  0.87454248  0.14989091    -0.25600
C333        C  0.94820354  0.87442095  0.19253990     0.36500
C334        C  0.94186878  0.89828188  0.21290418    -0.19600
C335        C  0.94408116  0.92206277  0.19079760    -0.24800
C336        C  0.95080036  0.92217863  0.14770912     0.27800
H337        H  0.95867368  0.85598964  0.13399971     0.13600
N338        N  0.94623844  0.84995320  0.21498307    -0.82100
H339        H  0.93977228  0.94040385  0.20671351     0.18400
N340        N  0.95212051  0.94654219  0.12490946    -0.80700
H341        H  0.95112125  0.83408817  0.19550658     0.34100
H342        H  0.96015365  0.85018946  0.23936396     0.38600
H343        H  0.94782124  0.96244394  0.14469035     0.34000
H344        H  0.97149556  0.94892441  0.11530836     0.30700
H345        H  0.01645536  0.86389146  0.07341637     0.34000
H346        H  0.01133115  0.89118716  0.10210995     0.30700
H347        H  0.90820469  0.88934762  0.97353567     0.38600
H348        H  0.90481435  0.91797828  0.99931886     0.34100
C349        C  0.74997724  0.90692251  0.16978572    -0.19700
C350        C  0.76669670  0.89889971  0.13682683     0.36600
C351        C  0.79341475  0.89381074  0.14529954    -0.25600
C352        C  0.80367648  0.89644902  0.18619755     0.03000
C353        C  0.78685096  0.90330950  0.21941734     0.27800
C354        C  0.76037314  0.90869312  0.21084068    -0.24800
N355        N  0.75669727  0.89555050  0.09489077    -0.82100
H356        H  0.80626254  0.88830079  0.11976859     0.13600
C357        C  0.83224399  0.89407446  0.19453891     0.03000
N358        N  0.79693388  0.90518043  0.26180229    -0.80700
H359        H  0.74797383  0.91484291  0.23650824     0.18400
C360        C  0.84529965  0.91640696  0.20978889    -0.25600
C361        C  0.87011994  0.91440523  0.22826363     0.36500
C362        C  0.88292698  0.88970601  0.23006252    -0.19600
C363        C  0.87084045  0.86763507  0.21170037    -0.24800
C364        C  0.84542802  0.86956401  0.19392383     0.27800
H365        H  0.83519350  0.93524499  0.21039032     0.13600
N366        N  0.88079453  0.93734280  0.24826468    -0.82100
H367        H  0.88056141  0.84863677  0.21361337     0.18400
N368        N  0.83253992  0.84662470  0.17728245    -0.80700
H369        H  0.89875744  0.94154211  0.23466249     0.34100
H370        H  0.88388272  0.93331222  0.28024243     0.39400
H371        H  0.84497771  0.83023241  0.17907822     0.34000
H372        H  0.81654035  0.84259736  0.19651341     0.30700
H373        H  0.78214811  0.91070948  0.28257791     0.34000
H374        H  0.80316374  0.88633433  0.27088340     0.30700
H375        H  0.76722361  0.90789704  0.07498895     0.38600
H376        H  0.76023966  0.87607768  0.08568812     0.34100
C377        C  0.46621706  0.97297728  0.47118048    -0.19700
C378        C  0.48672150  0.98969985  0.45837608     0.36600
C379        C  0.50229937  0.98238033  0.42408176    -0.25600
C380        C  0.49754733  0.95898983  0.40197789     0.03000
C381        C  0.47620328  0.94303086  0.41297357     0.27800
C382        C  0.46069958  0.95016821  0.44761571    -0.24800
N383        N  0.49155577  0.01411191  0.48006112    -0.82100
H384        H  0.51838285  0.99485001  0.41465148     0.13600
C385        C  0.51521556  0.95171474  0.36723211     0.03000
N386        N  0.47069055  0.91949385  0.38933642    -0.80700
H387        H  0.44483898  0.93744522  0.45707547     0.18400
C388        C  0.53570747  0.93374292  0.37460772    -0.25600
C389        C  0.55394522  0.92786582  0.34303069     0.36500
C390        C  0.55168953  0.94021034  0.30334952    -0.19600
C391        C  0.53084608  0.95801338  0.29619121    -0.24800
C392        C  0.51260835  0.96382922  0.32766003     0.27800
H393        H  0.53770388  0.92445539  0.40518591     0.13600
N394        N  0.57437049  0.90908128  0.35129990    -0.82100
H395        H  0.52894879  0.96792447  0.26617080     0.18400
N396        N  0.49166421  0.98231191  0.31990097    -0.80700
H397        H  0.56567129  0.89126492  0.35969618     0.34100
H398        H  0.58535473  0.91578141  0.37712220     0.38600
H399        H  0.49263485  0.98973893  0.28926927     0.34000
H400        H  0.47401007  0.97203627  0.32176376     0.30700
H401        H  0.45442292  0.90985547  0.40164062     0.34000
H402        H  0.46550419  0.92517438  0.35871297     0.30700
H403        H  0.47506796  0.02614039  0.47555283     0.38600
H404        H  0.50735720  0.02401378  0.46675947     0.34100
C405        C  0.57564097  0.96689988  0.97452632    -0.19700
C406        C  0.55850458  0.94813841  0.95670221     0.36600
C407        C  0.54223030  0.95538767  0.92270596    -0.25600
C408        C  0.54247188  0.98111062  0.90684769     0.03000
C409        C  0.55958163  0.99991867  0.92458823     0.27800
C410        C  0.57629188  0.99251748  0.95815943    -0.24800
N411        N  0.55742984  0.92195112  0.97376588    -0.82100
H412        H  0.52899337  0.94107346  0.90884979     0.13600
C413        C  0.52454090  0.98775853  0.87153021     0.03000
N414        N  0.55928929  0.02654931  0.90930978    -0.80700
H415        H  0.58906534  0.00698421  0.97270885     0.18400
C416        C  0.49942722  0.99756711  0.88000307    -0.25600
C417        C  0.48096221  0.00159679  0.84732104     0.36500
C418        C  0.48769516  0.99510646  0.80543066    -0.19600
C419        C  0.51330181  0.98614574  0.79717414    -0.24800
C420        C  0.53176170  0.98245697  0.82978558     0.27800
H421        H  0.49415298  0.00174967  0.91230388     0.13600
N422        N  0.45556778  0.01236600  0.85658696    -0.82100
H423        H  0.51879202  0.98113100  0.76532386     0.18400
N424        N  0.55757231  0.97252871  0.82093294    -0.80700
H425        H  0.45376321  0.01586868  0.88887438     0.34100
H426        H  0.45413868  0.03070607  0.84176394     0.38600
H427        H  0.55970481  0.96924740  0.78863626     0.34000
H428        H  0.57101515  0.98717159  0.82921306     0.30700
H429        H  0.57266304  0.03805430  0.92631650     0.34000
H430        H  0.56572235  0.02621643  0.87817831     0.30700
H431        H  0.57567179  0.91304107  0.96888343     0.38600
H432        H  0.54359748  0.91063316  0.95739841     0.34100
C433        C  0.28602176  0.98337405  0.66662354    -0.19700
C434        C  0.27347039  0.97753265  0.70493210     0.36600
C435        C  0.24610696  0.97878246  0.70742684    -0.25600
C436        C  0.23043630  0.98522762  0.67238138     0.03000
C437        C  0.24260807  0.99131582  0.63399381     0.27800
C438        C  0.27026456  0.99033087  0.63149139    -0.24800
N439        N  0.28818935  0.96945823  0.74133625    -0.82100
H440        H  0.23692086  0.97428248  0.73716992     0.13600
C441        C  0.20143226  0.98490435  0.67763443     0.03000
N442        N  0.22692567  0.99821325  0.59776231    -0.80700
H443        H  0.27948879  0.99510487  0.60195829     0.18400
C444        C  0.18676932  0.00835806  0.67430805    -0.25600
C445        C  0.16118351  0.00991263  0.69021334     0.36500
C446        C  0.15000562  0.98766907  0.70956939    -0.19600
C447        C  0.16394844  0.96383694  0.70990886    -0.24800
C448        C  0.18924323  0.96205181  0.69318163     0.27800
H449        H  0.19587913  0.02598787  0.66220686     0.13600
N450        N  0.14752396  0.03460968  0.68854419    -0.82100
H451        H  0.15556872  0.94686246  0.72533033     0.18400
N452        N  0.20329916  0.93743821  0.69401756    -0.80700
H453        H  0.14345119  0.04059328  0.71930903     0.34100
H454        H  0.12970893  0.03166282  0.67268795     0.38600
H455        H  0.19172378  0.92257106  0.70685218     0.34000
H456        H  0.20685448  0.93204130  0.66283447     0.30700
H457        H  0.23885485  0.00218450  0.57204741     0.34000
H458        H  0.21569131  0.98174151  0.58959188     0.30700
H459        H  0.28411494  0.98263035  0.76576995     0.38600
H460        H  0.28168103  0.95080408  0.75031120     0.34100
loop_ 
_geom_bond_atom_site_label_1 
_geom_bond_atom_site_label_2 
_geom_bond_distance 
_geom_bond_site_symmetry_2 
_ccdc_geom_bond_type 
N1            N2   1.320       .  A
N1            C5   1.342       .  A
N1           Cu9   2.062       .  S
N2            C3   1.348       .  A
N2           Cu8   2.088       .  S
C3            C4   1.392       .  A
C3            H6   1.081       .  S
C4            C5   1.386       .  A
C4          C418   1.491       .  S
C5            H7   1.082   1_565  S
Cu8          N11   2.090       .  S
Cu9          N19   2.063       .  S
Cu10         N12   2.088       .  S
Cu10         N18   2.087       .  S
N11          N12   1.323       .  A
N11          C15   1.345       .  A
N12          C13   1.348       .  A
C13          C14   1.390       .  A
C13          H16   1.082       .  S
C14          C15   1.392       .  A
C14         C433   1.499       .  S
C15          H17   1.080       .  S
N18          N19   1.322       .  A
N18          C22   1.349       .  A
N19          C20   1.341       .  A
C20          C21   1.382       .  A
C20          H23   1.082       .  S
C21          C22   1.389       .  A
C21         C377   1.483       .  S
C22          H24   1.082       .  S
N25          N26   1.317       .  A
N25          C29   1.338       .  A
N25         Cu33   2.046       .  S
N26          C27   1.350       .  A
N26         Cu32   2.084       .  S
C27          C28   1.395       .  A
C27          H30   1.081       .  S
C28          C29   1.383       .  A
C28         C390   1.488       .  S
C29          H31   1.081       .  S
Cu32         N35   2.086       .  S
Cu33         N43   2.046       .  S
Cu34         N36   2.092       .  S
Cu34         N42   2.089       .  S
N35          N36   1.325       .  A
N35          C39   1.342       .  A
N36          C37   1.349       .  A
C37          C38   1.389       .  A
C37          H40   1.081       .  S
C38          C39   1.386       .  A
C38         C349   1.491       .  S
C39          H41   1.081       .  S
N42          N43   1.321       .  A
N42          C46   1.351       .  A
N43          C44   1.338       .  A
C44          C45   1.375       .  A
C44          H47   1.082       .  S
C45          C46   1.388       .  A
C45         C405   1.472   1_554  S
C46          H48   1.082   1_554  S
N49          C53   1.365       .  A
N49          C50   1.361       .  A
N49         C321   1.448       .  S
C50          C51   1.379       .  A
C50         C265   1.482       .  S
C51          C52   1.370       .  A
C51          H54   1.082       .  S
C52          C53   1.386       .  A
C52          H55   1.082       .  S
C53         C293   1.493       .  S
N56          C60   1.362       .  A
N56          C57   1.357       .  A
N56         C334   1.443       .  S
C57          C58   1.377       .  A
C57         C362   1.477       .  S
C58          C59   1.371       .  A
C58          H61   1.082       .  S
C59          C60   1.388       .  A
C59          H62   1.083       .  S
C60         C237   1.489       .  S
N63          C67   1.361       .  A
N63          C64   1.362       .  A
N63         C222   1.446       .  S
C64          C65   1.383       .  A
C64         C194   1.491       .  S
C65          C66   1.370       .  A
C65          H68   1.082       .  S
C66          C67   1.381       .  A
C66          H69   1.082       .  S
C67         C250   1.479       .  S
N70          C74   1.365       .  A
N70          C71   1.362       .  A
N70         C209   1.445       .  S
C71          C72   1.378       .  A
C71         C446   1.481       .  S
C72          C73   1.370       .  A
C72          H75   1.082   1_565  S
C73          C74   1.385       .  A
C73          H76   1.082       .  S
C74         C306   1.490       .  S
N77          N78   1.319       .  A
N77          C81   1.337       .  A
N77         Cu85   2.034       .  S
N78          C79   1.351       .  A
N78         Cu84   2.089       .  S
C79          C80   1.390       .  A
C79          H82   1.082       .  S
C80          C81   1.377       .  A
C80         C153   1.476       .  S
C81          H83   1.082       .  S
Cu84         N87   2.092       .  S
Cu85         N95   2.035       .  S
Cu86         N88   2.094       .  S
Cu86         N94   2.091       .  S
N87          N88   1.327       .  A
N87          C91   1.345       .  A
N88          C89   1.349       .  A
C89          C90   1.384       .  A
C89          H92   1.082       .  S
C90          C91   1.383       .  A
C90         C181   1.482       .  S
C91          H93   1.082       .  S
N94          N95   1.320       .  A
N94          C98   1.349       .  A
N95          C96   1.337       .  A
C96          C97   1.376       .  A
C96          H99   1.082       .  S
C97          C98   1.391       .  A
C97         C138   1.477       .  S
C98         H100   1.082       .  S
N101        N102   1.320   1_455  A
N101        C105   1.338       .  A
N101       Cu109   2.045   1_556  S
N102        C103   1.348       .  A
N102       Cu108   2.072       .  S
C103        C104   1.384   1_655  A
C103        H106   1.082       .  S
C104        C105   1.376       .  A
C104        C125   1.467       .  S
C105        H107   1.082       .  S
Cu108       N111   2.074       .  S
Cu109       N119   2.045       .  S
Cu110       N112   2.092       .  S
Cu110       N118   2.090   1_655  S
N111        N112   1.325   1_556  A
N111        C115   1.342       .  A
N112        C113   1.348       .  A
C113        C114   1.386       .  A
C113        H116   1.082       .  S
C114        C115   1.383   1_554  A
C114        C278   1.484       .  S
C115        H117   1.082       .  S
N118        N119   1.320       .  A
N118        C122   1.350       .  A
N119        C120   1.338       .  A
C120        C121   1.380       .  A
C120        H123   1.082       .  S
C121        C122   1.392       .  A
C121        C166   1.482       .  S
C122        H124   1.082       .  S
C125        C126   1.409       .  A
C125        C130   1.400   1_455  A
C126        C127   1.401       .  A
C126        N131   1.438       .  S
C127        C128   1.400       .  A
C127        H132   1.084       .  S
C128        C129   1.410   1_455  A
C128        C133   1.475       .  S
C129        C130   1.405       .  A
C129        N134   1.437       .  S
C130        H135   1.084       .  S
N131        H151   1.046       .  S
N131        H152   1.045       .  S
C133        C136   1.402       .  A
C133        C140   1.407       .  A
N134        H149   1.045       .  S
N134        H150   1.046       .  S
C136        C137   1.404       .  A
C136        H141   1.084       .  S
C137        C138   1.410       .  A
C137        N142   1.437       .  S
C138        C139   1.406       .  A
C139        C140   1.403       .  A
C139        H143   1.084       .  S
C140        N144   1.438       .  S
N142        H145   1.045       .  S
N142        H146   1.046       .  S
N144        H147   1.045       .  S
N144        H148   1.046       .  S
C153        C154   1.413       .  A
C153        C158   1.402       .  A
C154        C155   1.401       .  A
C154        N159   1.438       .  S
C155        C156   1.398       .  A
C155        H160   1.084       .  S
C156        C157   1.411       .  A
C156        C161   1.476       .  S
C157        C158   1.407       .  A
C157        N162   1.437       .  S
C158        H163   1.084       .  S
N159        H179   1.046       .  S
N159        H180   1.046       .  S
C161        C164   1.397       .  A
C161        C168   1.410       .  A
N162        H177   1.045       .  S
N162        H178   1.046   1_455  S
C164        C165   1.403       .  A
C164        H169   1.084       .  S
C165        C166   1.416       .  A
C165        N170   1.438       .  S
C166        C167   1.404       .  A
C167        C168   1.407       .  A
C167        H171   1.083       .  S
C168        N172   1.438       .  S
N170        H173   1.046       .  S
N170        H174   1.046       .  S
N172        H175   1.045   1_455  S
N172        H176   1.046   1_455  S
C181        C182   1.410       .  A
C181        C186   1.405       .  A
C182        C183   1.406       .  A
C182        N187   1.438       .  S
C183        C184   1.403       .  A
C183        H188   1.084       .  S
C184        C185   1.411       .  A
C184        C189   1.489       .  S
C185        C186   1.412       .  A
C185        N190   1.437       .  S
C186        H191   1.084       .  S
N187        H207   1.046       .  S
N187        H208   1.045       .  S
C189        C192   1.402       .  A
C189        C196   1.411       .  A
N190        H205   1.045       .  S
N190        H206   1.046       .  S
C192        C193   1.406       .  A
C192        H197   1.084       .  S
C193        C194   1.413       .  A
C193        N198   1.437       .  S
C194        C195   1.405       .  A
C195        C196   1.410       .  A
C195        H199   1.082       .  S
C196        N200   1.437       .  S
N198        H201   1.045       .  S
N198        H202   1.046       .  S
N200        H203   1.046       .  S
N200        H204   1.045       .  S
C209        C210   1.409       .  A
C209        C214   1.403   1_565  A
C210        C211   1.406       .  A
C210        N215   1.430       .  S
C211        C212   1.404       .  A
C211        H216   1.084       .  S
C212        C213   1.411   1_565  A
C212        C217   1.488   1_565  S
C213        C214   1.409       .  A
C213        N218   1.438       .  S
C214        H219   1.083       .  S
N215        H235   1.045       .  S
N215        H236   1.045       .  S
C217        C220   1.405       .  A
C217        C224   1.411       .  A
N218        H233   1.046       .  S
N218        H234   1.046       .  S
C220        C221   1.412       .  A
C220        H225   1.083   1_545  S
C221        C222   1.412       .  A
C221        N226   1.435       .  S
C222        C223   1.404       .  A
C223        C224   1.405       .  A
C223        H227   1.083       .  S
C224        N228   1.439       .  S
N226        H229   1.045       .  S
N226        H230   1.045       .  S
N228        H231   1.045       .  S
N228        H232   1.046       .  S
C237        C238   1.411       .  A
C237        C242   1.407       .  A
C238        C239   1.415   1_655  A
C238        N243   1.435       .  S
C239        C240   1.407       .  A
C239        H244   1.083       .  S
C240        C241   1.406   1_455  A
C240        C245   1.488       .  S
C241        C242   1.397       .  A
C241        N246   1.433       .  S
C242        H247   1.084       .  S
N243        H263   1.045       .  S
N243        H264   1.046   1_655  S
C245        C248   1.401       .  A
C245        C252   1.414       .  A
N246        H261   1.045       .  S
N246        H262   1.046       .  S
C248        C249   1.400   1_565  A
C248        H253   1.084   1_465  S
C249        C250   1.411       .  A
C249        N254   1.439       .  S
C250        C251   1.403   1_545  A
C251        C252   1.413       .  A
C251        H255   1.083       .  S
C252        N256   1.437       .  S
N254        H257   1.045       .  S
N254        H258   1.045       .  S
N256        H259   1.045       .  S
N256        H260   1.046       .  S
C265        C266   1.412       .  A
C265        C270   1.402       .  A
C266        C267   1.409       .  A
C266        N271   1.437       .  S
C267        C268   1.403   1_556  A
C267        H272   1.084   1_556  S
C268        C269   1.409   1_554  A
C268        C273   1.485       .  S
C269        C270   1.403       .  A
C269        N274   1.438   1_656  S
C270        H275   1.081       .  S
N271        H291   1.046       .  S
N271        H292   1.046       .  S
C273        C276   1.402   1_554  A
C273        C280   1.409       .  A
N274        H289   1.046   1_554  S
N274        H290   1.046       .  S
C276        C277   1.402       .  A
C276        H281   1.084       .  S
C277        C278   1.413   1_556  A
C277        N282   1.438       .  S
C278        C279   1.406       .  A
C279        C280   1.410       .  A
C279        H283   1.083       .  S
C280        N284   1.437       .  S
N282        H285   1.046   1_655  S
N282        H286   1.046   1_655  S
N284        H287   1.046       .  S
N284        H288   1.046       .  S
C293        C294   1.410       .  A
C293        C298   1.409       .  A
C294        C295   1.406   1_655  A
C294        N299   1.430   1_655  S
C295        C296   1.403       .  A
C295        H300   1.084       .  S
C296        C297   1.415   1_455  A
C296        C301   1.488       .  S
C297        C298   1.406       .  A
C297        N302   1.438       .  S
C298        H303   1.084       .  S
N299        H319   1.046       .  S
N299        H320   1.045       .  S
C301        C304   1.404       .  A
C301        C308   1.407       .  A
N302        H317   1.046       .  S
N302        H318   1.043       .  S
C304        C305   1.408       .  A
C304        H309   1.084       .  S
C305        C306   1.409       .  A
C305        N310   1.431       .  S
C306        C307   1.409       .  A
C307        C308   1.409       .  A
C307        H311   1.084   1_565  S
C308        N312   1.437       .  S
N310        H313   1.046       .  S
N310        H314   1.045       .  S
N312        H315   1.046   1_565  S
N312        H316   1.045   1_455  S
C321        C322   1.413   1_556  A
C321        C326   1.403   1_556  A
C322        C323   1.411       .  A
C322        N327   1.437   1_554  S
C323        C324   1.405       .  A
C323        H328   1.084       .  S
C324        C325   1.412       .  A
C324        C329   1.495       .  S
C325        C326   1.408       .  A
C325        N330   1.437   1_655  S
C326        H331   1.079       .  S
N327        H347   1.046       .  S
N327        H348   1.045       .  S
C329        C332   1.403       .  A
C329        C336   1.414       .  A
N330        H345   1.046       .  S
N330        H346   1.046       .  S
C332        C333   1.403       .  A
C332        H337   1.084       .  S
C333        C334   1.410       .  A
C333        N338   1.438       .  S
C334        C335   1.403       .  A
C335        C336   1.414       .  A
C335        H339   1.081       .  S
C336        N340   1.436       .  S
N338        H341   1.045       .  S
N338        H342   1.045       .  S
N340        H343   1.046       .  S
N340        H344   1.045       .  S
C349        C350   1.416       .  A
C349        C354   1.405       .  A
C350        C351   1.409       .  A
C350        N355   1.431       .  S
C351        C352   1.401       .  A
C351        H356   1.084       .  S
C352        C353   1.410       .  A
C352        C357   1.483       .  S
C353        C354   1.401       .  A
C353        N358   1.439       .  S
C354        H359   1.082       .  S
N355        H375   1.045       .  S
N355        H376   1.046       .  S
C357        C360   1.401       .  A
C357        C364   1.412       .  A
N358        H373   1.045       .  S
N358        H374   1.047       .  S
C360        C361   1.393       .  A
C360        H365   1.084       .  S
C361        C362   1.412       .  A
C361        N366   1.432       .  S
C362        C363   1.404       .  A
C363        C364   1.411       .  A
C363        H367   1.084       .  S
C364        N368   1.437       .  S
N366        H369   1.041       .  S
N366        H370   1.046       .  S
N368        H371   1.045       .  S
N368        H372   1.046       .  S
C377        C378   1.414       .  A
C377        C382   1.405       .  A
C378        C379   1.404       .  A
C378        N383   1.438   1_565  S
C379        C380   1.399       .  A
C379        H384   1.084       .  S
C380        C381   1.408       .  A
C380        C385   1.478       .  S
C381        C382   1.408       .  A
C381        N386   1.437       .  S
C382        H387   1.083       .  S
N383        H403   1.046       .  S
N383        H404   1.046       .  S
C385        C388   1.402       .  A
C385        C392   1.405       .  A
N386        H401   1.045       .  S
N386        H402   1.046       .  S
C388        C389   1.406       .  A
C388        H393   1.084       .  S
C389        C390   1.412       .  A
C389        N394   1.431       .  S
C390        C391   1.409       .  A
C391        C392   1.403       .  A
C391        H395   1.082       .  S
C392        N396   1.438       .  S
N394        H397   1.046       .  S
N394        H398   1.045       .  S
N396        H399   1.046       .  S
N396        H400   1.045       .  S
C405        C406   1.410       .  A
C405        C410   1.402       .  A
C406        C407   1.403       .  A
C406        N411   1.438       .  S
C407        C408   1.400       .  A
C407        H412   1.084       .  S
C408        C409   1.409       .  A
C408        C413   1.478       .  S
C409        C410   1.408       .  A
C409        N414   1.437   1_565  S
C410        H415   1.084   1_565  S
N411        H431   1.046       .  S
N411        H432   1.046       .  S
C413        C416   1.401       .  A
C413        C420   1.405       .  A
N414        H429   1.045       .  S
N414        H430   1.045       .  S
C416        C417   1.408   1_565  A
C416        H421   1.084   1_565  S
C417        C418   1.416   1_545  A
C417        N422   1.437       .  S
C418        C419   1.408       .  A
C419        C420   1.404       .  A
C419        H423   1.082       .  S
C420        N424   1.438       .  S
N422        H425   1.045       .  S
N422        H426   1.046       .  S
N424        H427   1.046       .  S
N424        H428   1.045       .  S
C433        C434   1.414       .  A
C433        C438   1.412       .  A
C434        C435   1.400       .  A
C434        N439   1.431       .  S
C435        C436   1.401       .  A
C435        H440   1.084       .  S
C436        C437   1.410       .  A
C436        C441   1.491       .  S
C437        C438   1.415       .  A
C437        N442   1.437       .  S
C438        H443   1.082       .  S
N439        H459   1.045       .  S
N439        H460   1.046       .  S
C441        C444   1.406   1_565  A
C441        C448   1.411       .  A
N442        H457   1.044   1_565  S
N442        H458   1.047       .  S
C444        C445   1.407       .  A
C444        H449   1.083       .  S
C445        C446   1.412   1_545  A
C445        N450   1.432       .  S
C446        C447   1.400       .  A
C447        C448   1.403       .  A
C447        H451   1.084       .  S
C448        N452   1.438       .  S
N450        H453   1.045       .  S
N450        H454   1.045       .  S
N452        H455   1.047       .  S
N452        H456   1.045       .  S
