geometry optimzed in LAMMPS
_audit_creation_date              2020-12-01 
_audit_creation_method            'lammps2cif' 
_symmetry_space_group_name_H-M    'P1' 
_symmetry_Int_Tables_number       1 
_symmetry_cell_setting            triclinic 
loop_ 
_symmetry_equiv_pos_as_xyz 
  x,y,z 
_cell_length_a                    38.78230526 
_cell_length_b                    39.137569712367544 
_cell_length_c                    39.19539518398902 
_cell_angle_alpha                 89.01723279942567 
_cell_angle_beta                  90.22590162785562 
_cell_angle_gamma                 93.08611122933046 
loop_ 
_atom_site_label 
_atom_site_type_symbol 
_atom_site_fract_x 
_atom_site_fract_y 
_atom_site_fract_z 
_atom_site_charge 
C1          C  0.79380883  0.46357286  0.02906226     0.86500
C2          C  0.77463729  0.49269883  0.04719772    -0.53800
C3          C  0.75000670  0.50810886  0.02734003     0.09400
C4          C  0.74892814  0.49376492  0.99105585     0.20300
C5          C  0.76509818  0.43927362  0.01568473    -0.54500
C6          C  0.73938736  0.45522888  0.99862259     0.09500
C7          C  0.80887107  0.48058285  0.99781138    -0.54000
C8          C  0.78688005  0.49703435  0.97763531     0.10100
H9          H  0.77745934  0.49835355  0.07396589     0.14600
H10         H  0.73031320  0.50479704  0.97314392     0.00300
H11         H  0.76134751  0.41344426  0.02617494     0.14900
H12         H  0.83671522  0.48282021  0.99380549     0.14700
C13         C  0.54181139  0.72054981  0.01604388     0.86500
C14         C  0.56343714  0.74745667  0.99418703    -0.53800
C15         C  0.54363104  0.76681498  0.97276234     0.09400
C16         C  0.50455955  0.75755487  0.97533726     0.20300
C17         C  0.51604198  0.74308881  0.03470879    -0.54500
C18         C  0.49773788  0.76405930  0.01346626     0.09500
C19         C  0.51975919  0.70051664  0.99102924    -0.54000
C20         C  0.50013685  0.71859071  0.97003895     0.10100
H21         H  0.59086603  0.75309209  0.99798091     0.14600
H22         H  0.48877253  0.77246932  0.95740021     0.00300
H23         H  0.51439906  0.74419062  0.06213922     0.14900
H24         H  0.51837903  0.67259981  0.99083829     0.14700
C25         C  0.05314260  0.50968530  0.79097170     0.86500
C26         C  0.04385122  0.47776062  0.76867592    -0.53800
C27         C  0.01624852  0.48088594  0.74601091     0.09400
C28         C  0.99924405  0.51527190  0.75164818     0.20300
C29         C  0.05706584  0.53900658  0.76429089    -0.54500
C30         C  0.02968789  0.54084719  0.74209952     0.09500
C31         C  0.02069757  0.51571303  0.80971464    -0.54000
C32         C  0.99235047  0.51795160  0.79059829     0.10100
H33         H  0.06237593  0.45829354  0.76653799     0.14600
H34         H  0.97539913  0.51982846  0.73770674     0.00300
H35         H  0.08181029  0.55228238  0.75908163     0.14900
H36         H  0.01982662  0.51736896  0.83745223     0.14700
C37         C  0.49470421  0.94534762  0.70257748     0.86500
C38         C  0.51195739  0.97611994  0.72294210    -0.53800
C39         C  0.49047897  0.99111796  0.74578511     0.09400
C40         C  0.45365305  0.97517616  0.74385737     0.20300
C41         C  0.47980991  0.92135880  0.73090901    -0.54500
C42         C  0.45988076  0.93735655  0.75393867     0.09500
C43         C  0.46326401  0.95864115  0.68582547    -0.54000
C44         C  0.44270510  0.97606210  0.70571645     0.10100
H45         H  0.53973329  0.98121868  0.72341646     0.14600
H46         H  0.43460793  0.98662239  0.76054313     0.00300
H47         H  0.48881782  0.89604849  0.73577224     0.14900
H48         H  0.45993809  0.95844566  0.65813858     0.14700
C49         C  0.71122772  0.96505647  0.49147972     0.86500
C50         C  0.73563591  0.95095591  0.46490216    -0.53800
C51         C  0.75942342  0.97470176  0.45118484     0.09400
C52         C  0.75341959  0.01141966  0.46295884     0.20300
C53         C  0.73589008  0.98445752  0.51683543    -0.54500
C54         C  0.75984669  0.00737960  0.50199726     0.09500
C55         C  0.69371054  0.99290096  0.47316464    -0.54000
C56         C  0.71418790  0.01767580  0.45829009     0.10100
H57         H  0.74020425  0.92385829  0.46449319     0.14600
H58         H  0.77025446  0.03099881  0.44953076     0.00300
H59         H  0.73530661  0.97928796  0.54387995     0.14900
H60         H  0.66582320  0.99302756  0.47272582     0.14700
C61         C  0.01107375  0.80122811  0.48241895     0.86500
C62         C  0.03379024  0.78227768  0.50859350    -0.53800
C63         C  0.01543472  0.76006345  0.53066850     0.09400
C64         C  0.97586039  0.76221730  0.52619788     0.20300
C65         C  0.98904663  0.77146332  0.46626415    -0.54500
C66         C  0.97143775  0.74980989  0.48929093     0.09500
C67         C  0.98638380  0.81947771  0.50372906    -0.54000
C68         C  0.96752653  0.80053272  0.52633852     0.10100
H69         H  0.06153631  0.78164330  0.50542687     0.14600
H70         H  0.96038427  0.74717389  0.54519342     0.00300
H71         H  0.99354112  0.76367397  0.44035921     0.14900
H72         H  0.98298671  0.84657711  0.49976498     0.14700
C73         C  0.24420024  0.49220511  0.03283289     0.86500
C74         C  0.26512312  0.47236659  0.00713439    -0.53800
C75         C  0.28571529  0.49273498  0.98564085     0.09400
C76         C  0.27983179  0.53155984  0.98966307     0.20300
C77         C  0.27240080  0.51615130  0.04976135    -0.54500
C78         C  0.29074548  0.53720134  0.02696559     0.09500
C79         C  0.22319521  0.51524668  0.01093007    -0.54000
C80         C  0.24058340  0.53669120  0.98906361     0.10100
H81         H  0.26864230  0.44517032  0.01023442     0.14600
H82         H  0.29433843  0.54824731  0.97099084     0.00300
H83         H  0.28009170  0.51353606  0.07627784     0.14900
H84         H  0.19567001  0.51639827  0.01486527     0.14700
O85         O  0.97835125  0.44907495  0.03773230    -0.73000
O86         O  0.04883075  0.48425712  0.96996014    -0.74000
O87         O  0.05165091  0.45606863  0.03825584    -0.62600
O88         O  0.97456325  0.48160056  0.96930725    -0.71000
O89         O  0.97523036  0.53206630  0.99365718    -0.70500
O90         O  0.05296104  0.50844612  0.05846044    -0.61800
O91         O  0.05107166  0.53645152  0.99083373    -0.74300
O92         O  0.97914520  0.49907928  0.06319502    -0.73100
Cu93       Cu  0.01312951  0.46619563  0.00290411     1.04600
Cu94       Cu  0.01413287  0.52091938  0.02706958     1.04300
C95         C  0.96963761  0.46700177  0.06286258     0.93200
C96         C  0.06276499  0.51457657  0.97027801     0.92400
C97         C  0.06381016  0.47836843  0.05968090     0.84500
C98         C  0.96332124  0.51191368  0.97036860     0.90800
N99         N  0.93881667  0.52458952  0.94470365    -0.03500
C100        C  0.95400485  0.54392635  0.91877270    -0.00900
C101        C  0.95338687  0.57830140  0.92712094    -0.23800
C102        C  0.92786133  0.58014562  0.95069033    -0.24000
C103        C  0.91604031  0.54677146  0.95731473    -0.01000
H104        H  0.96379111  0.60019829  0.91263251     0.12800
H105        H  0.91441881  0.60308342  0.95556080     0.12800
C106        C  0.01827982  0.52332914  0.29111981     0.86500
C107        C  0.04752389  0.53514871  0.26585936    -0.53800
C108        C  0.06386809  0.50818590  0.25146129     0.09400
C109        C  0.04934369  0.47270509  0.26460186     0.20300
C110        C  0.99497337  0.49898801  0.26881239    -0.54500
C111        C  0.01144669  0.47359302  0.25289430     0.09500
C112        C  0.03580929  0.50087181  0.31660729    -0.54000
C113        C  0.05011736  0.47339461  0.30415573     0.10100
H114        H  0.05071733  0.56106490  0.25577951     0.14600
H115        H  0.06362733  0.45132510  0.25486210     0.00300
H116        H  0.96942977  0.50581999  0.26081206     0.14900
H117        H  0.03250685  0.50368450  0.34406229     0.14700
N118        N  0.95063168  0.44973172  0.09093586    -0.03500
C119        C  0.96820622  0.43271425  0.11594968    -0.00900
C120        C  0.95597735  0.39868929  0.11848106    -0.23800
C121        C  0.92832798  0.39493695  0.09753577    -0.24000
C122        C  0.92474133  0.42638173  0.08241853    -0.01000
H123        H  0.96222135  0.37994889  0.13783564     0.12800
H124        H  0.90985501  0.37318778  0.09719781     0.12800
N125        N  0.09434740  0.52174797  0.95066773    -0.03500
C126        C  0.10120538  0.49696515  0.92786651    -0.00900
C127        C  0.12624808  0.47647289  0.94048996    -0.23800
C128        C  0.13869030  0.49209632  0.96919131    -0.24000
C129        C  0.12350765  0.52356451  0.97026973    -0.01000
H130        H  0.13891320  0.45670300  0.92716063     0.12800
H131        H  0.16322647  0.48606649  0.98005788     0.12800
O132        O  0.50443838  0.53967421  0.97540598    -0.73000
O133        O  0.56319796  0.45836687  0.00179185    -0.74000
O134        O  0.49883441  0.46677361  0.96563343    -0.62600
O135        O  0.57068679  0.53282149  0.01108053    -0.71000
O136        O  0.54216638  0.52561294  0.05969249    -0.70500
O137        O  0.46953522  0.46023952  0.01375809    -0.61800
O138        O  0.53299284  0.45181659  0.04947279    -0.74300
O139        O  0.47742538  0.53362149  0.02475947    -0.73100
Cu140      Cu  0.53548044  0.49973816  0.98690634     1.04600
Cu141      Cu  0.50483037  0.49273409  0.03862942     1.04300
C142        C  0.48026102  0.54817004  0.99546848     0.93200
C143        C  0.55602588  0.44144415  0.02943499     0.92400
C144        C  0.47268388  0.45354668  0.98206078     0.84500
C145        C  0.56748623  0.53988057  0.04268122     0.90800
N146        N  0.59170784  0.56417682  0.05936541    -0.03500
C147        C  0.61897992  0.55372814  0.07850470    -0.00900
C148        C  0.62189232  0.57237014  0.10817479    -0.23800
C149        C  0.59701923  0.59546415  0.10721245    -0.24000
C150        C  0.57996442  0.59141146  0.07651169    -0.01000
H151        H  0.64331256  0.57341202  0.12593494     0.12800
H152        H  0.59607263  0.61710408  0.12396915     0.12800
C153        C  0.49245354  0.21210696  0.96331196     0.86500
C154        C  0.47234130  0.23908689  0.94307384    -0.53800
C155        C  0.45422159  0.26046290  0.96365935     0.09400
C156        C  0.45587350  0.24965744  0.00198680     0.20300
C157        C  0.51364028  0.23448087  0.98907355    -0.54500
C158        C  0.49460863  0.25521708  0.00880962     0.09500
C159        C  0.46468244  0.19251726  0.98296712    -0.54000
C160        C  0.44674320  0.21068026  0.00466862     0.10100
H161        H  0.47725438  0.24481115  0.91630260     0.14600
H162        H  0.43952106  0.26409080  0.01884955     0.00300
H163        H  0.54150758  0.23808801  0.98702421     0.14900
H164        H  0.46226850  0.16459587  0.98307639     0.14700
O165        O  0.49207979  0.95286740  0.02812701    -0.73000
O166        O  0.52573473  0.02109179  0.95297205    -0.74000
O167        O  0.50424436  0.02711682  0.02507815    -0.62600
O168        O  0.51161185  0.94701001  0.95806853    -0.71000
O169        O  0.45797492  0.95610664  0.94225915    -0.70500
O170        O  0.45112666  0.03449415  0.00683322    -0.61800
O171        O  0.47230666  0.02869742  0.93551915    -0.74300
O172        O  0.43830549  0.96139166  0.01243074    -0.73100
Cu173      Cu  0.51044146  0.98718840  0.99151153     1.04600
Cu174      Cu  0.45328576  0.99558493  0.97365484     1.04300
C175        C  0.45966282  0.94616704  0.03190863     0.93200
C176        C  0.50492319  0.03473863  0.93179802     0.92400
C177        C  0.47560958  0.04195867  0.02787608     0.84500
C178        C  0.48472592  0.93842824  0.94037292     0.90800
N179        N  0.48293325  0.90799030  0.91956557    -0.03500
C180        C  0.45541187  0.90433538  0.89790630    -0.00900
C181        C  0.43769945  0.87326333  0.90328304    -0.23800
C182        C  0.45673225  0.85569530  0.92629641    -0.24000
C183        C  0.48568891  0.87636030  0.93417670    -0.01000
H184        H  0.41752463  0.86191476  0.88726323     0.12800
H185        H  0.45362799  0.82834457  0.93089780     0.12800
C186        C  0.52929248  0.97820894  0.25888680     0.86500
C187        C  0.50642214  0.95310654  0.23735323    -0.53800
C188        C  0.48093222  0.96855538  0.21893293     0.09400
C189        C  0.47816114  0.00688765  0.22820151     0.20300
C190        C  0.54056397  0.00672390  0.23253106    -0.54500
C191        C  0.51365244  0.02210001  0.21683267     0.09500
C192        C  0.50406416  0.99394548  0.28251080    -0.54000
C193        C  0.47777025  0.00907512  0.26753792     0.10100
H194        H  0.51233964  0.92660943  0.23423339     0.14600
H195        H  0.45622261  0.01947593  0.21595719     0.00300
H196        H  0.56628235  0.00928586  0.22180771     0.14900
H197        H  0.50787748  0.99495601  0.31005696     0.14700
N198        N  0.44697731  0.92061327  0.05700378    -0.03500
C199        C  0.42751557  0.92910509  0.08442709    -0.00900
C200        C  0.39906185  0.90635986  0.08754167    -0.23800
C201        C  0.40213750  0.88199298  0.06352178    -0.24000
C202        C  0.43231505  0.89023712  0.04606476    -0.01000
H203        H  0.38164210  0.90364426  0.10902822     0.12800
H204        H  0.38738203  0.85771908  0.06312535     0.12800
N205        N  0.51881620  0.05595520  0.90350144    -0.03500
C206        C  0.53608398  0.04140407  0.87749352    -0.00900
C207        C  0.56671631  0.05991843  0.87035148    -0.23800
C208        C  0.56787185  0.08779821  0.89049978    -0.24000
C209        C  0.53818926  0.08545210  0.90965872    -0.01000
H210        H  0.58359170  0.05660946  0.84885154     0.12800
H211        H  0.58596123  0.10975897  0.88811174     0.12800
O212        O  0.99651754  0.47744428  0.55791165    -0.73000
O213        O  0.96575193  0.54594013  0.48653058    -0.74000
O214        O  0.97125730  0.47126421  0.48929422    -0.62600
O215        O  0.99488008  0.55237457  0.55465606    -0.71000
O216        O  0.04674401  0.55632625  0.53110604    -0.70500
O217        O  0.02346515  0.47898986  0.46711990    -0.61800
O218        O  0.01774157  0.55224356  0.46337393    -0.74300
O219        O  0.04889813  0.48161617  0.53548943    -0.73100
Cu220      Cu  0.98015886  0.51178721  0.52268947     1.04600
Cu221      Cu  0.03593160  0.51760933  0.49862970     1.04300
C222        C  0.02733242  0.46762305  0.55724466     0.93200
C223        C  0.98603966  0.56005439  0.46410281     0.92400
C224        C  0.99481043  0.46145058  0.46914192     0.84500
C225        C  0.02534960  0.56704229  0.55268827     0.90800
N226        N  0.03705827  0.59443428  0.57544602    -0.03500
C227        C  0.05615647  0.62208929  0.56202107    -0.00900
C228        C  0.08802130  0.62586939  0.57778205    -0.23800
C229        C  0.08777659  0.60288367  0.60403708    -0.24000
C230        C  0.05607708  0.58509278  0.60314589    -0.01000
H231        H  0.10673270  0.64724871  0.57469520     0.12800
H232        H  0.10681672  0.60234518  0.62429071     0.12800
O233        O  0.54041602  0.02431707  0.45135821    -0.73000
O234        O  0.46905741  0.02719141  0.52685143    -0.74000
O235        O  0.53498777  0.99598096  0.51941094    -0.62600
O236        O  0.47316686  0.05401258  0.45770066    -0.71000
O237        O  0.44788353  0.00680685  0.43681227    -0.70500
O238        O  0.50598441  0.94963116  0.50106627    -0.61800
O239        O  0.44049876  0.98125781  0.50706380    -0.74300
O240        O  0.51491323  0.97633952  0.43268489    -0.73100
Cu241      Cu  0.50522247  0.02700562  0.48940682     1.04600
Cu242      Cu  0.47638564  0.97695166  0.46866277     1.04300
C243        C  0.54031390  0.99889726  0.43137039     0.93200
C244        C  0.44314340  0.00550877  0.52873644     0.92400
C245        C  0.52975721  0.96330555  0.51999851     0.84500
C246        C  0.45066643  0.03949759  0.43767683     0.90800
N247        N  0.55032781  0.94138586  0.54160519    -0.03500
C248        C  0.57241924  0.92105783  0.52525296    -0.00900
C249        C  0.56321728  0.88695067  0.53044775    -0.23800
C250        C  0.53818875  0.88553899  0.55453538    -0.24000
C251        C  0.53269254  0.91909479  0.56342062    -0.01000
H252        H  0.57780234  0.86546438  0.52301819     0.12800
H253        H  0.53046515  0.86218012  0.56818669     0.12800
C254        C  0.21527385  0.05368382  0.51022400     0.86500
C255        C  0.23492077  0.02550361  0.52845549    -0.53800
C256        C  0.25222756  0.00433589  0.50708638     0.09400
C257        C  0.24756951  0.01473024  0.46893262     0.20300
C258        C  0.24433037  0.07287320  0.48906853    -0.54500
C259        C  0.26241750  0.05229892  0.46809209     0.09500
C260        C  0.19251013  0.03505149  0.48465104    -0.54000
C261        C  0.20857992  0.01591525  0.46247531     0.10100
H262        H  0.24215755  0.02896395  0.55476364     0.14600
H263        H  0.25899253  0.99799859  0.45032404     0.00300
H264        H  0.25240285  0.09938977  0.49362782     0.14900
H265        H  0.16463113  0.03743100  0.48353213     0.14700
O266        O  0.01726217  0.00835516  0.44813597    -0.73000
O267        O  0.94717062  0.06244714  0.50060126    -0.74000
O268        O  0.01847540  0.07610607  0.47942880    -0.62600
O269        O  0.94702749  0.99640047  0.46969893    -0.71000
O270        O  0.96546591  0.97313892  0.51760264    -0.70500
O271        O  0.03729961  0.05195054  0.52688587    -0.61800
O272        O  0.96643760  0.03920019  0.54843296    -0.74300
O273        O  0.03545201  0.98413185  0.49587528    -0.73100
Cu274      Cu  0.98206583  0.03671093  0.47278666     1.04600
Cu275      Cu  0.00191607  0.01152612  0.52384100     1.04300
C276        C  0.03620039  0.98671817  0.46325951     0.93200
C277        C  0.94534775  0.05849398  0.53305753     0.92400
C278        C  0.03858536  0.07713716  0.50542314     0.84500
C279        C  0.94532324  0.97181248  0.49182995     0.90800
N280        N  0.92274553  0.94156187  0.48604596    -0.03500
C281        C  0.90359419  0.94239644  0.45691964    -0.00900
C282        C  0.91385935  0.91822905  0.43458771    -0.23800
C283        C  0.93640648  0.89889363  0.45242980    -0.24000
C284        C  0.93734261  0.91055090  0.48582418    -0.01000
H285        H  0.90117717  0.91092184  0.41095699     0.12800
H286        H  0.94292589  0.87368116  0.44465094     0.12800
C287        C  0.95288073  0.23415580  0.54774778     0.86500
C288        C  0.98615934  0.25494492  0.55877078    -0.53800
C289        C  0.00019270  0.27713595  0.53422966     0.09400
C290        C  0.98090004  0.27347583  0.49960551     0.20300
C291        C  0.92940053  0.26252894  0.53490549    -0.54500
C292        C  0.94395174  0.28288137  0.50923341     0.09500
C293        C  0.96268953  0.21575828  0.51602147    -0.54000
C294        C  0.97778148  0.23485490  0.49075953     0.10100
H295        H  0.99366228  0.25692032  0.58540728     0.14600
H296        H  0.99280695  0.28968324  0.47886713     0.00300
H297        H  0.90603004  0.26912094  0.54773797     0.14900
H298        H  0.96035728  0.18797064  0.51526955     0.14700
N299        N  0.91873941  0.07419673  0.55254483    -0.03500
C300        C  0.89123955  0.05392288  0.56375120    -0.00900
C301        C  0.88652236  0.05765280  0.59837567    -0.23800
C302        C  0.90993206  0.08266031  0.60861116    -0.24000
C303        C  0.92782265  0.09413035  0.57985650    -0.01000
H304        H  0.86509866  0.04705440  0.61350070     0.12800
H305        H  0.90899593  0.09571856  0.63269843     0.12800
N306        N  0.05749815  0.96496267  0.44312390    -0.03500
C307        C  0.04164867  0.93772471  0.42686144    -0.00900
C308        C  0.04615018  0.94147677  0.39187237    -0.23800
C309        C  0.06887511  0.96875744  0.38668803    -0.24000
C310        C  0.07790586  0.98063549  0.41854149    -0.01000
H311        H  0.03950981  0.92272347  0.37263186     0.12800
H312        H  0.08303840  0.97398155  0.36325515     0.12800
N313        N  0.41559325  0.01068548  0.55311859    -0.03500
C314        C  0.42256102  0.03297102  0.57917055    -0.00900
C315        C  0.40360491  0.06160595  0.57503704    -0.23800
C316        C  0.37980327  0.05394292  0.55033138    -0.24000
C317        C  0.38578663  0.02150090  0.53920669    -0.01000
H318        H  0.40095983  0.08143101  0.59364414     0.12800
H319        H  0.35603413  0.06691304  0.54698426     0.12800
N320        N  0.03787818  0.44083723  0.58083688    -0.03500
C321        C  0.05730344  0.45118793  0.60819135    -0.00900
C322        C  0.09093221  0.44192622  0.60395564    -0.23800
C323        C  0.08987355  0.41825681  0.57854580    -0.24000
C324        C  0.05600588  0.41539634  0.56733521    -0.01000
H325        H  0.11189583  0.44564999  0.62203739     0.12800
H326        H  0.10958558  0.40028084  0.57420165     0.12800
N327        N  0.06061934  0.10758406  0.51243352    -0.03500
C328        C  0.04643205  0.13844691  0.51658816    -0.00900
C329        C  0.05710219  0.15260308  0.54721636    -0.23800
C330        C  0.08180373  0.13252146  0.56026077    -0.24000
C331        C  0.08497714  0.10629297  0.53763231    -0.01000
H332        H  0.05177579  0.17781165  0.55615429     0.12800
H333        H  0.09952213  0.13958684  0.58068209     0.12800
N334        N  0.57043816  0.99364277  0.41025434    -0.03500
C335        C  0.60209373  0.99591041  0.42583739    -0.00900
C336        C  0.61694525  0.96465176  0.42383937    -0.23800
C337        C  0.59665498  0.94431349  0.40324726    -0.24000
C338        C  0.57029119  0.96400543  0.39224366    -0.01000
H339        H  0.64365294  0.96022187  0.42897790     0.12800
H340        H  0.60531314  0.92180251  0.39085001     0.12800
N341        N  0.97239202  0.58465452  0.44010528    -0.03500
C342        C  0.95228841  0.60947321  0.45184620    -0.00900
C343        C  0.92286722  0.61201688  0.43222973    -0.23800
C344        C  0.92542879  0.58991048  0.40623716    -0.24000
C345        C  0.95611898  0.57406964  0.41088625    -0.01000
H346        H  0.90429560  0.63164385  0.43359020     0.12800
H347        H  0.90910916  0.58912281  0.38375667     0.12800
N348        N  0.57308610  0.41036467  0.03836810    -0.03500
C349        C  0.60588008  0.40911672  0.05074613    -0.00900
C350        C  0.60877825  0.38033151  0.07133177    -0.23800
C351        C  0.57714179  0.36417356  0.07317197    -0.24000
C352        C  0.55597843  0.38163221  0.05139233    -0.01000
H353        H  0.63212238  0.36974034  0.08104849     0.12800
H354        H  0.57204483  0.33863084  0.08371481     0.12800
N355        N  0.46877530  0.06308960  0.05732379    -0.03500
C356        C  0.46460017  0.04455246  0.08701607    -0.00900
C357        C  0.43009481  0.04267910  0.09630815    -0.23800
C358        C  0.41426695  0.06641551  0.07688928    -0.24000
C359        C  0.43948536  0.08125642  0.05587641    -0.01000
H360        H  0.42012090  0.03317120  0.12056803     0.12800
H361        H  0.38988748  0.07697246  0.08315296     0.12800
N362        N  0.45382149  0.57087125  0.98371320    -0.03500
C363        C  0.42104035  0.55635612  0.98161812    -0.00900
C364        C  0.41043666  0.55663960  0.94783202    -0.23800
C365        C  0.43469561  0.57574089  0.92971714    -0.24000
C366        C  0.45883755  0.58778656  0.95313741    -0.01000
H367        H  0.38430549  0.55152417  0.93890034     0.12800
H368        H  0.42988852  0.58712323  0.90488245     0.12800
N369        N  0.08834245  0.46922656  0.08618937    -0.03500
C370        C  0.07567867  0.46036342  0.11784206    -0.00900
C371        C  0.08024548  0.42569257  0.12344344    -0.23800
C372        C  0.10273539  0.41578527  0.09914753    -0.24000
C373        C  0.10991663  0.44414601  0.07855515    -0.01000
H374        H  0.07586494  0.41187201  0.14733108     0.12800
H375        H  0.11803261  0.39351946  0.10143976     0.12800
N376        N  0.99165706  0.42838844  0.45243599    -0.03500
C377        C  0.98376243  0.40020388  0.47259370    -0.00900
C378        C  0.00861473  0.37643850  0.46920631    -0.23800
C379        C  0.03064541  0.38795346  0.44429386    -0.24000
C380        C  0.01887895  0.41866354  0.43308045    -0.01000
H381        H  0.00627386  0.35025064  0.47820361     0.12800
H382        H  0.04953645  0.37300829  0.43193629     0.12800
N383        N  0.42869851  0.06013745  0.41623816    -0.03500
C384        C  0.44185634  0.07684568  0.38796104    -0.00900
C385        C  0.43124688  0.10996078  0.38634907    -0.23800
C386        C  0.40945063  0.11345478  0.41311275    -0.24000
C387        C  0.40659061  0.08219041  0.43005939    -0.01000
H388        H  0.43425428  0.12776979  0.36500368     0.12800
H389        H  0.39238910  0.13425705  0.41573839     0.12800
N390        N  0.44663755  0.43214290  0.96416844    -0.03500
C391        C  0.45795702  0.40827132  0.94220905    -0.00900
C392        C  0.44617434  0.41446133  0.90954562    -0.23800
C393        C  0.42307228  0.43917399  0.91184699    -0.24000
C394        C  0.42186791  0.44819243  0.94582277    -0.01000
H395        H  0.44807960  0.39780217  0.88792935     0.12800
H396        H  0.40497045  0.44521063  0.89184782     0.12800
C397        C  0.03506360  0.16153237  0.48830460    -0.06200
C398        C  0.00307811  0.15495471  0.47206969    -0.17300
C399        C  0.98544298  0.18226732  0.45746550     0.11000
C400        C  0.99767275  0.21612941  0.46489900    -0.06100
C401        C  0.03319915  0.22099017  0.46874515    -0.17300
C402        C  0.05196203  0.19446425  0.48274875     0.11100
S403        S  0.94208437  0.17488236  0.44154956    -0.32300
S404        S  0.09531052  0.20495228  0.49769096    -0.32300
H405        H  0.10029072  0.23598666  0.47928701     0.29100
H406        H  0.94359440  0.13916580  0.43893377     0.29100
H407        H  0.98981352  0.13007933  0.47460181     0.19700
H408        H  0.04435134  0.24671411  0.46837364     0.19700
C409        C  0.93349630  0.13193374  0.57652977    -0.06200
C410        C  0.90550996  0.15073711  0.56588955    -0.17300
C411        C  0.90764560  0.18669581  0.56414108     0.11000
C412        C  0.93934238  0.20504385  0.57203712    -0.06100
C413        C  0.96518498  0.18586567  0.58805658    -0.17300
C414        C  0.96273675  0.14987968  0.58989980     0.11100
S415        S  0.87015814  0.20806943  0.54928359    -0.32300
S416        S  0.99819127  0.12818362  0.60865805    -0.32300
H417        H  0.99450334  0.09890525  0.58839046     0.29100
H418        H  0.84679413  0.17930182  0.54921161     0.29100
H419        H  0.88165774  0.13695172  0.55898498     0.19700
H420        H  0.98959092  0.19836489  0.59531013     0.19700
C421        C  0.04044886  0.38040569  0.55897574    -0.06200
C422        C  0.05648880  0.36153897  0.53393222    -0.17300
C423        C  0.04543434  0.32747989  0.52659348     0.11000
C424        C  0.01723273  0.31128031  0.54438369    -0.06100
C425        C  0.00246424  0.32955479  0.57079004    -0.17300
C426        C  0.01369836  0.36343150  0.57846508     0.11100
S427        S  0.06789400  0.30527766  0.49444791    -0.32300
S428        S  0.99472015  0.38330624  0.61465863    -0.32300
H429        H  0.96759994  0.35857168  0.62035167     0.29100
H430        H  0.09065876  0.33264306  0.48408465     0.29100
H431        H  0.07794344  0.37374117  0.51996855     0.19700
H432        H  0.98136287  0.31738168  0.58522880     0.19700
C433        C  0.93212481  0.31721669  0.49954313    -0.06200
C434        C  0.93351311  0.34289422  0.52416121    -0.17300
C435        C  0.94075219  0.37718800  0.51434947     0.11000
C436        C  0.94827006  0.38543455  0.47997339    -0.06100
C437        C  0.93574526  0.36170170  0.45560098    -0.17300
C438        C  0.92974177  0.32703970  0.46496312     0.11100
S439        S  0.94535974  0.40892964  0.54664445    -0.32300
S440        S  0.92389835  0.29500883  0.43258467    -0.32300
H441        H  0.91926513  0.31799493  0.40515619     0.29100
H442        H  0.93153768  0.43445573  0.52592459     0.29100
H443        H  0.93268046  0.33601923  0.55101139     0.19700
H444        H  0.93895101  0.36801496  0.42894050     0.19700
C445        C  0.19038292  0.07561704  0.52971509    -0.06200
C446        C  0.17781915  0.10246615  0.50942326    -0.17300
C447        C  0.14271519  0.10866581  0.50827242     0.11000
C448        C  0.11992353  0.09339224  0.53268966    -0.06100
C449        C  0.13330141  0.07130223  0.55724596    -0.17300
C450        C  0.16753713  0.06098141  0.55524732     0.11100
S451        S  0.12821047  0.13333725  0.47245393    -0.32300
S452        S  0.18065619  0.02879457  0.58542217    -0.32300
H453        H  0.14757790  0.01877618  0.59780344     0.29100
H454        H  0.10343837  0.10789655  0.46235381     0.29100
H455        H  0.19371941  0.11390661  0.48919067     0.19700
H456        H  0.11641769  0.06127249  0.57739922     0.19700
C457        C  0.18675293  0.99963062  0.43578886    -0.06200
C458        C  0.16856272  0.02275004  0.41545870    -0.17300
C459        C  0.13272618  0.01809743  0.41094428     0.11000
C460        C  0.11530332  0.98824394  0.42417980    -0.06100
C461        C  0.13500295  0.96223235  0.43806953    -0.17300
C462        C  0.17042687  0.96765755  0.44401432     0.11100
S463        S  0.11046210  0.05210850  0.39031896    -0.32300
S464        S  0.19269021  0.93485333  0.46642649    -0.32300
H465        H  0.22558127  0.94568943  0.45424715     0.29100
H466        H  0.07902598  0.04613424  0.40773030     0.29100
H467        H  0.18096950  0.04738937  0.40863605     0.19700
H468        H  0.12276900  0.93756850  0.44444535     0.19700
C469        C  0.28430069  0.98702491  0.51854651    -0.06200
C470        C  0.30946629  0.98046661  0.49399050    -0.17300
C471        C  0.34451381  0.98722213  0.50086552     0.11000
C472        C  0.35467491  0.99844794  0.53350636    -0.06100
C473        C  0.33017079  0.99491476  0.55997938    -0.17300
C474        C  0.29525595  0.98710631  0.55290846     0.11100
S475        S  0.37395312  0.98376871  0.46612956    -0.32300
S476        S  0.26565397  0.97666312  0.58749850    -0.32300
H477        H  0.29069089  0.97668005  0.61359516     0.29100
H478        H  0.39341214  0.01364913  0.47436062     0.29100
H479        H  0.30241816  0.97396310  0.46820307     0.19700
H480        H  0.33739811  0.00177872  0.58565535     0.19700
C481        C  0.37137031  0.07144107  0.44280084    -0.06200
C482        C  0.34928849  0.05192382  0.42121696    -0.17300
C483        C  0.31354151  0.04779819  0.42721184     0.11000
C484        C  0.29911820  0.06138405  0.45692950    -0.06100
C485        C  0.32134528  0.08137754  0.47825210    -0.17300
C486        C  0.35664870  0.08745726  0.47082335     0.11100
S487        S  0.28758005  0.02806103  0.39393209    -0.32300
S488        S  0.38129765  0.11792248  0.49647188    -0.32300
H489        H  0.41297077  0.10238656  0.49313993     0.29100
H490        H  0.25762094  0.04540209  0.40092303     0.29100
H491        H  0.35961668  0.04180951  0.39804566     0.19700
H492        H  0.31137293  0.09243378  0.50106864     0.19700
C493        C  0.51620217  0.03906304  0.18266008    -0.06200
C494        C  0.52888449  0.02048199  0.15553398    -0.17300
C495        C  0.51527394  0.02393005  0.12251081     0.11000
C496        C  0.48959687  0.04751928  0.11612581    -0.06100
C497        C  0.48236483  0.07054153  0.14212728    -0.17300
C498        C  0.49546086  0.06656698  0.17507328     0.11100
S499        S  0.52892404  0.99495376  0.09105719    -0.32300
S500        S  0.48186726  0.09481662  0.20754056    -0.32300
H501        H  0.51177181  0.09145863  0.22747124     0.29100
H502        H  0.49499256  0.98724042  0.08033091     0.29100
H503        H  0.54596495  0.00008126  0.16082123     0.19700
H504        H  0.46370428  0.08977866  0.13760690     0.19700
C505        C  0.46767489  0.95598960  0.18470547    -0.06200
C506        C  0.43460141  0.96517726  0.17440150    -0.17300
C507        C  0.42196133  0.95938914  0.14122630     0.11000
C508        C  0.44244648  0.94344341  0.11688012    -0.06100
C509        C  0.47528644  0.93380122  0.12708877    -0.17300
C510        C  0.48837803  0.93999957  0.16015498     0.11100
S511        S  0.37892750  0.97243874  0.13194405    -0.32300
S512        S  0.53198485  0.92794478  0.16903581    -0.32300
H513        H  0.54040378  0.91742841  0.13610493     0.29100
H514        H  0.38402344  0.97717310  0.09663375     0.29100
H515        H  0.41830300  0.97738962  0.19240060     0.19700
H516        H  0.49057984  0.92049976  0.10909368     0.19700
C517        C  0.45068843  0.05966629  0.35576649    -0.06200
C518        C  0.43050663  0.03063798  0.34561761    -0.17300
C519        C  0.43435319  0.01652090  0.31320514     0.11000
C520        C  0.45872011  0.03155290  0.28997409    -0.06100
C521        C  0.47715014  0.06184521  0.29940139    -0.17300
C522        C  0.47425545  0.07532400  0.33205499     0.11100
S523        S  0.40955476  0.97758424  0.30363457    -0.32300
S524        S  0.50368883  0.11080891  0.34281523    -0.32300
H525        H  0.50551340  0.10261864  0.37783907     0.29100
H526        H  0.41371531  0.98033293  0.26802759     0.29100
H527        H  0.41144977  0.01893485  0.36294471     0.19700
H528        H  0.49753614  0.07241082  0.28295525     0.19700
C529        C  0.55689210  0.96430489  0.28268027    -0.06200
C530        C  0.54539344  0.93532467  0.30248958    -0.17300
C531        C  0.54763260  0.93526386  0.33832092     0.11000
C532        C  0.56366691  0.96363666  0.35493131    -0.06100
C533        C  0.58059919  0.98928049  0.33497688    -0.17300
C534        C  0.57945878  0.98870672  0.29929990     0.11100
S535        S  0.52711169  0.89957873  0.36145077    -0.32300
S536        S  0.60570379  0.02070413  0.27606952    -0.32300
H537        H  0.62538919  0.03318331  0.30386812     0.29100
H538        H  0.51913584  0.91798304  0.39061110     0.29100
H539        H  0.52941645  0.91521319  0.29083393     0.19700
H540        H  0.59511748  0.00979700  0.34743982     0.19700
C541        C  0.43371360  0.18984324  0.03429765    -0.06200
C542        C  0.46018979  0.17836834  0.05557777    -0.17300
C543        C  0.46397344  0.14314210  0.06140934     0.11000
C544        C  0.43864478  0.11897596  0.04887900    -0.06100
C545        C  0.40854275  0.13152564  0.03410588    -0.17300
C546        C  0.40559949  0.16662175  0.02748322     0.11100
S547        S  0.50237351  0.13004594  0.08296843    -0.32300
S548        S  0.36837640  0.18005817  0.00429936    -0.32300
H549        H  0.37597724  0.21533305  0.00847989     0.29100
H550        H  0.51336525  0.16247851  0.09509548     0.29100
H551        H  0.48170595  0.19609510  0.06138606     0.19700
H552        H  0.38766067  0.11373125  0.02649881     0.19700
C553        C  0.51228667  0.18430733  0.94588230    -0.06200
C554        C  0.50080028  0.17306822  0.91359447    -0.17300
C555        C  0.50724561  0.14015721  0.90196414     0.11000
C556        C  0.52510235  0.11735006  0.92305710    -0.06100
C557        C  0.53814882  0.12869557  0.95416758    -0.17300
C558        C  0.53202122  0.16133006  0.96605760     0.11100
S559        S  0.49260217  0.12737191  0.86006091    -0.32300
S560        S  0.54664279  0.17042218  0.00903567    -0.32300
H561        H  0.57202421  0.14609768  0.01100081     0.29100
H562        H  0.47853796  0.15848763  0.85038037     0.29100
H563        H  0.48482660  0.18914193  0.89825780     0.19700
H564        H  0.55298945  0.11144758  0.96950562     0.19700
C565        C  0.53143047  0.35896254  0.03223225    -0.06200
C566        C  0.50490473  0.34246633  0.05166387    -0.17300
C567        C  0.49437956  0.30809524  0.04634878     0.11000
C568        C  0.50851430  0.29012147  0.01908031    -0.06100
C569        C  0.53273126  0.30793672  0.99774247    -0.17300
C570        C  0.54408335  0.34174381  0.00384546     0.11100
S571        S  0.46629634  0.28780887  0.07810400    -0.32300
S572        S  0.57870906  0.35964895  0.97752401    -0.32300
H573        H  0.56499734  0.39210585  0.97532451     0.29100
H574        H  0.47923922  0.25519883  0.07500408     0.29100
H575        H  0.49603569  0.35478457  0.07434103     0.19700
H576        H  0.54301277  0.29567855  0.97573151     0.19700
C577        C  0.45263073  0.29819443  0.95526840    -0.06200
C578        C  0.47990236  0.31510366  0.93684539    -0.17300
C579        C  0.48395994  0.35093748  0.93481679     0.11000
C580        C  0.46040953  0.37129584  0.95149017    -0.06100
C581        C  0.43259790  0.35455001  0.96895342    -0.17300
C582        C  0.42819427  0.31859570  0.97072235     0.11100
S583        S  0.51918252  0.36925552  0.90939448    -0.32300
S584        S  0.38943280  0.29926722  0.98997279    -0.32300
H585        H  0.37674829  0.32948006  0.00285142     0.29100
H586        H  0.52223021  0.40067909  0.92629836     0.29100
H587        H  0.49939876  0.30048752  0.92504652     0.19700
H588        H  0.41267141  0.36968181  0.97895495     0.19700
C589        C  0.07895408  0.50945452  0.21617959    -0.06200
C590        C  0.06024530  0.52428151  0.18951013    -0.17300
C591        C  0.06106366  0.51157434  0.15610671     0.11000
C592        C  0.08085241  0.48313670  0.14876928    -0.06100
C593        C  0.10466143  0.47348940  0.17416650    -0.17300
C594        C  0.10407116  0.48644650  0.20730909     0.11100
S595        S  0.03467594  0.53187181  0.12525352    -0.32300
S596        S  0.13418410  0.47057734  0.23812916    -0.32300
H597        H  0.13051079  0.49689945  0.26164062     0.29100
H598        H  0.02147383  0.50048063  0.11290613     0.29100
H599        H  0.04170056  0.54304992  0.19533381     0.19700
H600        H  0.12266631  0.45405698  0.16884565     0.19700
C601        C  0.00070186  0.46307658  0.21725534    -0.06200
C602        C  0.98290351  0.48603521  0.19610176    -0.17300
C603        C  0.97359608  0.47849593  0.16222142     0.11000
C604        C  0.98429334  0.44806294  0.14754447    -0.06100
C605        C  0.00483526  0.42684224  0.16771090    -0.17300
C606        C  0.01134579  0.43279014  0.20231296     0.11100
S607        S  0.94872675  0.50872938  0.13857524    -0.32300
S608        S  0.03023671  0.39864318  0.22613870    -0.32300
H609        H  0.01433350  0.40560325  0.25724491     0.29100
H610        H  0.93972107  0.52863400  0.16638075     0.29100
H611        H  0.97665274  0.51064483  0.20564482     0.19700
H612        H  0.01348784  0.40339527  0.15716550     0.19700
C613        C  0.02770302  0.43048214  0.39767000    -0.06200
C614        C  0.06249163  0.43912480  0.38992225    -0.17300
C615        C  0.07323721  0.44612024  0.35621262     0.11000
C616        C  0.04900143  0.44444878  0.32921015    -0.06100
C617        C  0.01551632  0.43062980  0.33645901    -0.17300
C618        C  0.00428380  0.42511992  0.37031080     0.11100
S619        S  0.11730008  0.46136333  0.34917008    -0.32300
S620        S  0.95951847  0.41297560  0.37808965    -0.32300
H621        H  0.95012827  0.40670903  0.34397304     0.29100
H622        H  0.11658688  0.45583196  0.31381097     0.29100
H623        H  0.08132498  0.44105767  0.41039676     0.19700
H624        H  0.99659849  0.42974539  0.31605522     0.19700
C625        C  0.99825120  0.54738627  0.31357659    -0.06200
C626        C  0.96572340  0.53368238  0.32547057    -0.17300
C627        C  0.95411865  0.53859868  0.35853213     0.11000
C628        C  0.97308735  0.56059812  0.38046349    -0.06100
C629        C  0.00398805  0.57666618  0.36841598    -0.17300
C630        C  0.01646930  0.57075137  0.33550996     0.11100
S631        S  0.91557408  0.51415645  0.37208468    -0.32300
S632        S  0.05749349  0.59124851  0.32427406    -0.32300
H633        H  0.04469189  0.60460904  0.29349059     0.29100
H634        H  0.92455887  0.51277472  0.40688545     0.29100
H635        H  0.95053602  0.51507875  0.31104014     0.19700
H636        H  0.01841747  0.59443550  0.38448873     0.19700
C637        C  0.14664899  0.45275783  0.06957409    -0.06200
C638        C  0.16364240  0.48008680  0.08641850    -0.17300
C639        C  0.19831380  0.48998781  0.07995216     0.11000
C640        C  0.21732889  0.47216961  0.05537675    -0.06100
C641        C  0.20083242  0.44232487  0.04142333    -0.17300
C642        C  0.16596067  0.43282240  0.04786013     0.11100
S643        S  0.21559664  0.52847325  0.10017200    -0.32300
S644        S  0.14702771  0.39645986  0.02555020    -0.32300
H645        H  0.11335400  0.40800718  0.02381012     0.29100
H646        H  0.18810740  0.53302148  0.12265715     0.29100
H647        H  0.14920642  0.49444043  0.10431012     0.19700
H648        H  0.21366237  0.42815757  0.02224633     0.19700
C649        C  0.14959912  0.55302388  0.96640837    -0.06200
C650        C  0.17078099  0.55304504  0.93717773    -0.17300
C651        C  0.20667682  0.55831773  0.94055907     0.11000
C652        C  0.22081198  0.56480717  0.97305121    -0.06100
C653        C  0.19863138  0.58012271  0.99621520    -0.17300
C654        C  0.16301784  0.57060855  0.99516483     0.11100
S655        S  0.23330261  0.54935351  0.90493450    -0.32300
S656        S  0.13850570  0.57398123  0.03377226    -0.32300
H657        H  0.10607962  0.56768909  0.01842391     0.29100
H658        H  0.26285534  0.56652662  0.91864073     0.29100
H659        H  0.16068888  0.54231294  0.91366704     0.19700
H660        H  0.20933261  0.58893938  0.02030212     0.19700
C661        C  0.39351544  0.56046649  0.00797968    -0.06200
C662        C  0.36987009  0.58602016  0.00161189    -0.17300
C663        C  0.33631831  0.58313410  0.01469264     0.11000
C664        C  0.32551399  0.55356313  0.03356792    -0.06100
C665        C  0.35078185  0.53251053  0.04628088    -0.17300
C666        C  0.38449286  0.53540632  0.03344293     0.11100
S667        S  0.30663884  0.61493932  0.00190830    -0.32300
S668        S  0.41255452  0.50352627  0.04777599    -0.32300
H669        H  0.42214082  0.49726682  0.01422044     0.29100
H670        H  0.28087875  0.60461496  0.02568625     0.29100
H671        H  0.37590607  0.60614597  0.98296130     0.19700
H672        H  0.34314832  0.51030690  0.06194495     0.19700
C673        C  0.32053572  0.48091284  0.97510321    -0.06200
C674        C  0.33934531  0.46046995  0.99781990    -0.17300
C675        C  0.37272296  0.45012543  0.99012965     0.11000
C676        C  0.38916207  0.46198666  0.95956253    -0.06100
C677        C  0.37063504  0.48336540  0.93766738    -0.17300
C678        C  0.33677042  0.49194499  0.94446995     0.11100
S679        S  0.39303200  0.42136296  0.01958685    -0.32300
S680        S  0.31496296  0.51484024  0.91150048    -0.32300
H681        H  0.28287728  0.49736621  0.91752602     0.29100
H682        H  0.36583153  0.41730565  0.04317358     0.29100
H683        H  0.32794503  0.45266083  0.02203039     0.19700
H684        H  0.38218799  0.49264515  0.91392908     0.19700
C685        C  0.02798689  0.83008961  0.45959034    -0.06200
C686        C  0.05180303  0.85280482  0.47652793    -0.17300
C687        C  0.05488121  0.88826052  0.46892436     0.11000
C688        C  0.03571502  0.90197967  0.44158020    -0.06100
C689        C  0.01372534  0.87922148  0.42329585    -0.17300
C690        C  0.00954700  0.84418634  0.43149408     0.11100
S691        S  0.08093003  0.91533032  0.49685944    -0.32300
S692        S  0.97791150  0.81955608  0.40671331    -0.32300
H693        H  0.97472791  0.84300486  0.37942877     0.29100
H694        H  0.09887167  0.88922652  0.51300134     0.29100
H695        H  0.06484133  0.84361606  0.49903194     0.19700
H696        H  0.99852208  0.88940934  0.40267816     0.19700
C697        C  0.93890276  0.81823012  0.54279850    -0.06200
C698        C  0.95074601  0.84780959  0.56032569    -0.17300
C699        C  0.94854573  0.88046249  0.54441431     0.11000
C700        C  0.93010462  0.88315253  0.51314933    -0.06100
C701        C  0.90775290  0.85475052  0.50462484    -0.17300
C702        C  0.91075503  0.82286108  0.52077300     0.11100
S703        S  0.97311567  0.91608334  0.56209454    -0.32300
S704        S  0.88504719  0.78709022  0.50524249    -0.32300
H705        H  0.88518723  0.77046169  0.53732381     0.29100
H706        H  0.97878665  0.90090495  0.59429185     0.29100
H707        H  0.96925723  0.84482920  0.58076390     0.19700
H708        H  0.89012534  0.85649619  0.48322207     0.19700
C709        C  0.96755112  0.71193443  0.48281249    -0.06200
C710        C  0.99271437  0.69706666  0.46286142    -0.17300
C711        C  0.99185697  0.66205089  0.45681334     0.11000
C712        C  0.96488586  0.64042118  0.47036347    -0.06100
C713        C  0.94154783  0.65440237  0.49279872    -0.17300
C714        C  0.94230489  0.68969089  0.49900583     0.11100
S715        S  0.02437517  0.64748572  0.42893885    -0.32300
S716        S  0.90841859  0.70543861  0.52471570    -0.32300
H717        H  0.89515431  0.67360913  0.53748752     0.29100
H718        H  0.03103416  0.61904880  0.44975847     0.29100
H719        H  0.01393981  0.71263496  0.45201076     0.19700
H720        H  0.92040176  0.63796131  0.50266006     0.19700
C721        C  0.02888240  0.72582737  0.54113513    -0.06200
C722        C  0.05083962  0.70914960  0.51891567    -0.17300
C723        C  0.05752156  0.67439106  0.52329613     0.11000
C724        C  0.04162220  0.65478223  0.55012070    -0.06100
C725        C  0.02035655  0.67149770  0.57270660    -0.17300
C726        C  0.01476830  0.70660162  0.56918871     0.11100
S727        S  0.08802230  0.65679836  0.49467565    -0.32300
S728        S  0.99205655  0.72594636  0.60330819    -0.32300
H729        H  0.00634422  0.75933281  0.59749686     0.29100
H730        H  0.07560084  0.62252941  0.49848155     0.29100
H731        H  0.06204364  0.72275098  0.49703108     0.19700
H732        H  0.01047575  0.65788364  0.59511969     0.19700
C733        C  0.79449551  0.01809043  0.51812789    -0.06200
C734        C  0.81269864  0.04758431  0.50485265    -0.17300
C735        C  0.84604873  0.05822752  0.51637286     0.11000
C736        C  0.86211027  0.03930314  0.54239843    -0.06100
C737        C  0.84498632  0.00918338  0.55457857    -0.17300
C738        C  0.81172766  0.99841692  0.54351273     0.11100
S739        S  0.86690684  0.09683711  0.49854467    -0.32300
S740        S  0.79368933  0.95902052  0.56270627    -0.32300
H741        H  0.81621061  0.95731062  0.59082352     0.29100
H742        H  0.83945284  0.10644756  0.47755612     0.29100
H743        H  0.80043141  0.06313019  0.48582699     0.19700
H744        H  0.85759421  0.99454691  0.57422725     0.19700
C745        C  0.79607655  0.96452740  0.44896205    -0.06200
C746        C  0.80849533  0.94473792  0.47609346    -0.17300
C747        C  0.84334483  0.93984762  0.48057316     0.11000
C748        C  0.86738399  0.95290288  0.45613151    -0.06100
C749        C  0.85521480  0.97148740  0.42784835    -0.17300
C750        C  0.81986512  0.97810286  0.42446828     0.11100
S751        S  0.85473152  0.91584773  0.51803987    -0.32300
S752        S  0.80517836  0.00267542  0.38846976    -0.32300
H753        H  0.83712227  0.00617642  0.37154485     0.29100
H754        H  0.87521797  0.94318018  0.53149501     0.29100
H755        H  0.79100629  0.93423802  0.49543828     0.19700
H756        H  0.87344364  0.98075846  0.40853838     0.19700
C757        C  0.69598307  0.04537822  0.43976074    -0.06200
C758        C  0.66941379  0.05878238  0.45930360    -0.17300
C759        C  0.63482793  0.04632590  0.45387251     0.11000
C760        C  0.62685989  0.02691571  0.42439711    -0.06100
C761        C  0.65225412  0.02763000  0.39850470    -0.17300
C762        C  0.68689782  0.03761732  0.40597004     0.11100
S763        S  0.60426837  0.04777524  0.48824786    -0.32300
S764        S  0.72032178  0.03170847  0.37534336    -0.32300
H765        H  0.69807943  0.02694887  0.34716866     0.29100
H766        H  0.62425269  0.07014186  0.50904914     0.29100
H767        H  0.67635853  0.06887326  0.48408392     0.19700
H768        H  0.64668524  0.01460671  0.37488933     0.19700
C769        C  0.68192266  0.94101687  0.50603994    -0.06200
C770        C  0.66702926  0.95094826  0.53687980    -0.17300
C771        C  0.63186216  0.94467352  0.54399685     0.11000
C772        C  0.60969886  0.93002087  0.51893906    -0.06100
C773        C  0.62478546  0.91624826  0.49023765    -0.17300
C774        C  0.66044167  0.92033114  0.48401234     0.11100
S775        S  0.61677805  0.95314227  0.58623418    -0.32300
S776        S  0.67694861  0.89964041  0.44699082    -0.32300
H777        H  0.64622405  0.88162185  0.43724665     0.29100
H778        H  0.64804432  0.96693481  0.59977605     0.29100
H779        H  0.68220691  0.96574009  0.55496012     0.19700
H780        H  0.60826740  0.90201226  0.47255334     0.19700
C781        C  0.50286658  0.00651884  0.77913676    -0.06200
C782        C  0.53165242  0.99324210  0.79567973    -0.17300
C783        C  0.53903370  0.99947879  0.83010910     0.11000
C784        C  0.51960093  0.02239894  0.84850665    -0.06100
C785        C  0.49099001  0.03611794  0.83226070    -0.17300
C786        C  0.48276273  0.02890354  0.79799548     0.11100
S787        S  0.57441331  0.97797214  0.84934014    -0.32300
S788        S  0.44869399  0.05235468  0.77892291    -0.32300
H789        H  0.46321855  0.05350643  0.74620142     0.29100
H790        H  0.56250765  0.98011412  0.88307843     0.29100
H791        H  0.54839299  0.97712595  0.78222138     0.19700
H792        H  0.47656761  0.05477143  0.84540277     0.19700
C793        C  0.45907093  0.92714233  0.79086925    -0.06200
C794        C  0.42860519  0.93237408  0.80902160    -0.17300
C795        C  0.42674349  0.92742469  0.84452836     0.11000
C796        C  0.45656469  0.91892410  0.86286385    -0.06100
C797        C  0.48736080  0.91585145  0.84517743    -0.17300
C798        C  0.48876352  0.91757024  0.80970992     0.11100
S799        S  0.38568082  0.93210836  0.86487290    -0.32300
S800        S  0.52849903  0.90289887  0.79237852    -0.32300
H801        H  0.53354412  0.92623134  0.76550315     0.29100
H802        H  0.39889784  0.93795783  0.89782599     0.29100
H803        H  0.40583230  0.93992974  0.79531749     0.19700
H804        H  0.51025755  0.90900317  0.85906907     0.19700
C805        C  0.42505272  0.00259633  0.68579686    -0.06200
C806        C  0.44722423  0.02983048  0.67345174    -0.17300
C807        C  0.44848249  0.03859902  0.63849390     0.11000
C808        C  0.42602538  0.02121618  0.61534648    -0.06100
C809        C  0.40099278  0.99732568  0.62860790    -0.17300
C810        C  0.39897204  0.98962832  0.66362609     0.11100
S811        S  0.48128903  0.07005174  0.62448754    -0.32300
S812        S  0.36710381  0.95741868  0.67792242    -0.32300
H813        H  0.37274538  0.96302461  0.71294878     0.29100
H814        H  0.48564298  0.05634041  0.59195336     0.29100
H815        H  0.46790828  0.03989502  0.68960240     0.19700
H816        H  0.38310536  0.98413789  0.61161914     0.19700
C817        C  0.51523552  0.93186605  0.67263751    -0.06200
C818        C  0.53312320  0.95772029  0.65292336    -0.17300
C819        C  0.53492671  0.95677805  0.61716116     0.11000
C820        C  0.52378051  0.92662076  0.59996636    -0.06100
C821        C  0.50711878  0.90019864  0.61961269    -0.17300
C822        C  0.50280215  0.90212236  0.65499996     0.11100
S823        S  0.54702954  0.99628856  0.59473305    -0.32300
S824        S  0.47770328  0.86739781  0.67558575    -0.36500
H825        H  0.47970898  0.84327277  0.64956884     0.29100
H826        H  0.54537990  0.01857712  0.62237392     0.29100
H827        H  0.54144843  0.98138181  0.66489036     0.19700
H828        H  0.49569409  0.87808286  0.60694469     0.19700
C829        C  0.08060813  0.50697440  0.81922321    -0.06200
C830        C  0.08286498  0.47440956  0.83496094    -0.17300
C831        C  0.08816151  0.47043284  0.87013062     0.11000
C832        C  0.09377889  0.49951218  0.89065202    -0.06100
C833        C  0.09581435  0.53184881  0.87476576    -0.17300
C834        C  0.08980012  0.53608073  0.83960107     0.11100
S835        S  0.08334630  0.42747114  0.88753419    -0.32300
S836        S  0.08970687  0.57943465  0.82286794    -0.32300
H837        H  0.10535968  0.59587905  0.85103678     0.29100
H838        H  0.06763255  0.43669038  0.91806311     0.29100
H839        H  0.07580316  0.45149994  0.82104404     0.19700
H840        H  0.10132145  0.55411658  0.89027275     0.19700
C841        C  0.95145069  0.53440816  0.88109777    -0.06200
C842        C  0.94970432  0.56068244  0.85567234    -0.17300
C843        C  0.95358115  0.55433825  0.82082806     0.11000
C844        C  0.95995859  0.52126532  0.81021238    -0.06100
C845        C  0.95259041  0.49420884  0.83378291    -0.17300
C846        C  0.95020106  0.50027132  0.86919686     0.11100
S847        S  0.95664843  0.59028692  0.79147954    -0.32300
S848        S  0.94826049  0.46402558  0.89824417    -0.32300
H849        H  0.95405576  0.43868538  0.87422873     0.29100
H850        H  0.95213768  0.57057345  0.76198169     0.29100
H851        H  0.94667177  0.58696228  0.86234035     0.19700
H852        H  0.95580000  0.46838767  0.82531486     0.19700
C853        C  0.04196140  0.45297665  0.64340994    -0.06200
C854        C  0.01332921  0.47263375  0.64844822    -0.17300
C855        C  0.99933752  0.47676251  0.68127831     0.11000
C856        C  0.01690460  0.46432265  0.71075761    -0.06100
C857        C  0.04102094  0.43953419  0.70469705    -0.17300
C858        C  0.05321783  0.43331409  0.67191634     0.11100
S859        S  0.95632141  0.49205245  0.68324389    -0.32300
S860        S  0.08175749  0.39854288  0.66914830    -0.32300
H861        H  0.06639763  0.38495351  0.63948707     0.29100
H862        H  0.95616273  0.50762988  0.65062551     0.29100
H863        H  0.00143318  0.48429110  0.62646630     0.19700
H864        H  0.05116348  0.42480589  0.72563065     0.19700
C865        C  0.04323263  0.56656322  0.63447738    -0.06200
C866        C  0.06674294  0.54619709  0.65135807    -0.17300
C867        C  0.06364242  0.53786154  0.68609012     0.11000
C868        C  0.03574737  0.55013996  0.70513939    -0.06100
C869        C  0.01041574  0.56780186  0.68742342    -0.17300
C870        C  0.01374462  0.57602841  0.65235482     0.11100
S871        S  0.09595658  0.51127272  0.70445645    -0.32300
S872        S  0.98103889  0.59985984  0.63133403    -0.32300
H873        H  0.95840399  0.60065495  0.65922143     0.29100
H874        H  0.10811728  0.49855716  0.67362616     0.29100
H875        H  0.08914271  0.53859284  0.63753009     0.19700
H876        H  0.98819563  0.57561445  0.70134526     0.19700
C877        C  0.45218845  0.86144512  0.03352450    -0.06200
C878        C  0.48059616  0.85156311  0.05286868    -0.17300
C879        C  0.49443718  0.81920432  0.04932326     0.11000
C880        C  0.48082452  0.79630312  0.02404031    -0.06100
C881        C  0.45250959  0.80681376  0.00459057    -0.17300
C882        C  0.43779184  0.83833592  0.00951874     0.11100
S883        S  0.52793303  0.80807508  0.07906917    -0.32300
S884        S  0.39918821  0.84702551  0.98576990    -0.32300
H885        H  0.40559931  0.88276677  0.98440794     0.29100
H886        H  0.53681146  0.84140170  0.09019224     0.29100
H887        H  0.49025055  0.86829202  0.07284193     0.19700
H888        H  0.44121009  0.79021123  0.98540780     0.19700
C889        C  0.55433014  0.80065302  0.95702815    -0.06200
C890        C  0.54439996  0.80522539  0.92301789    -0.17300
C891        C  0.52745816  0.83446095  0.91268589     0.11000
C892        C  0.51880363  0.85871825  0.93744217    -0.06100
C893        C  0.53564470  0.85766121  0.96913297    -0.17300
C894        C  0.55551048  0.82963512  0.97796347     0.11100
S895        S  0.51209011  0.83718005  0.86927683    -0.32300
S896        S  0.58124162  0.82986268  0.01617252    -0.32300
H897        H  0.57309287  0.86270507  0.02653682     0.29100
H898        H  0.53355884  0.81275263  0.85608381     0.29100
H899        H  0.54485012  0.78371807  0.90601836     0.19700
H900        H  0.53128516  0.87715693  0.98766503     0.19700
C901        C  0.47513029  0.69783634  0.94938202    -0.06200
C902        C  0.49079109  0.67799028  0.92470613    -0.17300
C903        C  0.48730012  0.64196799  0.92624239     0.11000
C904        C  0.46594904  0.62556032  0.95146283    -0.06100
C905        C  0.44561264  0.64596779  0.97155476    -0.17300
C906        C  0.44826454  0.68167982  0.96884887     0.11100
S907        S  0.51288316  0.61851869  0.89738452    -0.32300
S908        S  0.42261433  0.70566849  0.99692330    -0.32300
H909        H  0.42492894  0.73492424  0.97567789     0.29100
H910        H  0.51585419  0.58955486  0.91867563     0.29100
H911        H  0.51079015  0.69000896  0.90860346     0.19700
H912        H  0.42772436  0.63411983  0.98982742     0.19700
C913        C  0.56825490  0.62323862  0.05979771    -0.06200
C914        C  0.58708995  0.63714589  0.03197897    -0.17300
C915        C  0.58286942  0.67079635  0.01988189     0.11000
C916        C  0.55966268  0.69232803  0.03654690    -0.06100
C917        C  0.54200283  0.67811745  0.06544564    -0.17300
C918        C  0.54538471  0.64418817  0.07647772     0.11100
S919        S  0.60498930  0.68410547  0.98095654    -0.32300
S920        S  0.51868037  0.62854699  0.11161095    -0.32300
H921        H  0.51776111  0.59392705  0.10238208     0.29100
H922        H  0.61415698  0.65145699  0.97093714     0.29100
H923        H  0.60578757  0.62168368  0.01999318     0.19700
H924        H  0.52269095  0.69206980  0.07810632     0.19700
C925        C  0.82314637  0.44610370  0.04726378    -0.06200
C926        C  0.83368896  0.45597721  0.08012336    -0.17300
C927        C  0.86671387  0.44946051  0.09220371     0.11000
C928        C  0.89050191  0.43506096  0.07024530    -0.06100
C929        C  0.87880826  0.42115365  0.03954991    -0.17300
C930        C  0.84491510  0.42492380  0.02853821     0.11100
S931        S  0.87723731  0.45735078  0.13634865    -0.32300
S932        S  0.83126984  0.40519475  0.98885817    -0.32300
H933        H  0.86006233  0.38532744  0.98461123     0.29100
H934        H  0.84350860  0.46295107  0.14721808     0.29100
H935        H  0.81673884  0.46913827  0.09641995     0.19700
H936        H  0.89629263  0.40700813  0.02442687     0.19700
C937        C  0.80518758  0.52448168  0.95690667    -0.06200
C938        C  0.81970493  0.55110873  0.97703514    -0.17300
C939        C  0.85576124  0.55656633  0.97952951     0.11000
C940        C  0.87766686  0.53965798  0.95722399    -0.06100
C941        C  0.86207410  0.51941699  0.93144803    -0.17300
C942        C  0.82605487  0.51250108  0.93060361     0.11100
S943        S  0.87216263  0.58176166  0.01473119    -0.32300
S944        S  0.80872719  0.48182926  0.90048680    -0.32300
H945        H  0.77390467  0.48605123  0.90869380     0.29100
H946        H  0.90153328  0.56283492  0.02046282     0.29100
H947        H  0.80428506  0.56111598  0.99712237     0.19700
H948        H  0.87799258  0.50804446  0.91254215     0.19700
C949        C  0.70348967  0.44503138  0.01022285    -0.06200
C950        C  0.69864425  0.43952749  0.04550738    -0.17300
C951        C  0.66639474  0.43242950  0.05962547     0.11000
C952        C  0.63718456  0.42866877  0.03811098    -0.06100
C953        C  0.64137607  0.43535126  0.00285556    -0.17300
C954        C  0.67417080  0.44386418  0.98877450     0.11100
S955        S  0.66523832  0.42659673  0.10549643    -0.32300
S956        S  0.67704606  0.45083110  0.94329684    -0.32300
H957        H  0.71170167  0.44267816  0.93990425     0.29100
H958        H  0.63089724  0.43582061  0.10913877     0.29100
H959        H  0.72039745  0.44151519  0.06289987     0.19700
H960        H  0.61960581  0.43153727  0.98576745     0.19700
C961        C  0.71852739  0.52410287  0.04191083    -0.06200
C962        C  0.70638346  0.51356482  0.07449053    -0.17300
C963        C  0.67331958  0.52073275  0.08594266     0.11000
C964        C  0.65074092  0.53889700  0.06460504    -0.06100
C965        C  0.66316854  0.55065455  0.03268031    -0.17300
C966        C  0.69687025  0.54474491  0.02183469     0.11100
S967        S  0.66183869  0.50654345  0.12869452    -0.32300
S968        S  0.71178658  0.56798503  0.98416825    -0.32300
H969        H  0.74638478  0.57057711  0.99475303     0.29100
H970        H  0.62636905  0.50105405  0.12172347     0.29100
H971        H  0.72194791  0.49814434  0.09097094     0.19700
H972        H  0.64751120  0.56699590  0.01713728     0.19700
loop_ 
_geom_bond_atom_site_label_1 
_geom_bond_atom_site_label_2 
_geom_bond_distance 
_geom_bond_site_symmetry_2 
_ccdc_geom_bond_type 
C1            C2   1.575       .  S
C1            C7   1.490   1_554  S
C1            C5   1.522       .  S
C1          C925   1.527       .  S
C2            H9   1.080       .  S
C2            C3   1.386       .  D
C3            C4   1.537   1_554  S
C3          C961   1.519       .  S
C4            C8   1.563       .  S
C4            C6   1.557       .  S
C4           H10   1.104       .  S
C5           H11   1.087       .  S
C5            C6   1.371   1_554  D
C6          C949   1.498   1_556  S
C7           H12   1.090       .  S
C7            C8   1.343       .  D
C8          C937   1.487       .  S
C13          C14   1.558   1_554  S
C13          C19   1.502   1_554  S
C13          C17   1.560       .  S
C13         C916   1.547       .  S
C14          H21   1.085       .  S
C14          C15   1.380       .  D
C15          C16   1.542       .  S
C15         C889   1.490       .  S
C16          C20   1.543       .  S
C16          C18   1.547   1_556  S
C16          H22   1.109       .  S
C17          H23   1.079       .  S
C17          C18   1.380       .  D
C18         C880   1.518       .  S
C19          H24   1.091       .  S
C19          C20   1.338       .  D
C20         C901   1.479       .  S
C25          C26   1.562       .  S
C25          C31   1.491       .  S
C25          C29   1.541       .  S
C25         C829   1.540       .  S
C26          H33   1.079       .  S
C26          C27   1.397       .  D
C27          C28   1.550   1_455  S
C27         C856   1.537       .  S
C28          C32   1.557       .  S
C28          C30   1.549   1_655  S
C28          H34   1.094       .  S
C29          H35   1.085       .  S
C29          C30   1.374       .  D
C30         C868   1.504       .  S
C31          H36   1.091       .  S
C31          C32   1.334   1_455  D
C32         C844   1.488       .  S
C37          C38   1.574       .  S
C37          C43   1.496       .  S
C37          C41   1.536       .  S
C37         C817   1.537       .  S
C38          H45   1.085       .  S
C38          C39   1.384       .  D
C39          C40   1.530       .  S
C39         C781   1.515   1_565  S
C40          C44   1.553       .  S
C40          C42   1.557       .  S
C40          H46   1.106       .  S
C41          H47   1.082       .  S
C41          C42   1.372       .  D
C42         C793   1.495       .  S
C43          H48   1.092       .  S
C43          C44   1.338       .  D
C44         C805   1.484   1_565  S
C49          C50   1.539       .  S
C49          C55   1.488       .  S
C49          C53   1.555       .  S
C49         C769   1.541       .  S
C50          H57   1.085       .  S
C50          C51   1.378       .  D
C51          C52   1.547   1_565  S
C51         C745   1.500       .  S
C52          C56   1.564       .  S
C52          C54   1.556       .  S
C52          H58   1.107       .  S
C53          H59   1.076       .  S
C53          C54   1.379   1_565  D
C54         C733   1.524       .  S
C55          H60   1.082       .  S
C55          C56   1.346   1_565  D
C56         C757   1.501       .  S
C61          C62   1.554       .  S
C61          C67   1.492   1_455  S
C61          C65   1.550   1_455  S
C61         C685   1.548       .  S
C62          H69   1.085       .  S
C62          C63   1.387       .  D
C63          C64   1.551   1_455  S
C63         C721   1.513       .  S
C64          C68   1.551       .  S
C64          C66   1.540       .  S
C64          H70   1.101       .  S
C65          H71   1.083       .  S
C65          C66   1.384       .  D
C66         C709   1.508       .  S
C67          H72   1.084       .  S
C67          C68   1.339       .  D
C68         C697   1.494       .  S
C73          C74   1.542       .  S
C73          C79   1.504       .  S
C73          C77   1.556       .  S
C73         C640   1.542       .  S
C74          H81   1.085       .  S
C74          C75   1.377   1_554  D
C75          C76   1.559       .  S
C75         C673   1.512       .  S
C76          C80   1.546       .  S
C76          C78   1.537   1_556  S
C76          H82   1.107       .  S
C77          H83   1.085       .  S
C77          C78   1.378       .  D
C78         C664   1.485       .  S
C79          H84   1.083       .  S
C79          C80   1.346   1_554  D
C80         C652   1.502       .  S
O85         Cu93   2.004   1_655  S
O85          C95   1.276       .  A
O86         Cu93   1.990   1_556  S
O86          C96   1.277       .  A
O87         Cu93   2.083       .  S
O87          C97   1.291       .  A
O88         Cu93   2.095   1_656  S
O88          C98   1.287       .  A
O89         Cu94   2.054   1_656  S
O89          C98   1.285       .  A
O90         Cu94   2.016       .  S
O90          C97   1.271       .  A
O91         Cu94   2.081   1_556  S
O91          C96   1.287       .  A
O92         Cu94   2.104   1_655  S
O92          C95   1.290       .  A
Cu93        Cu94   2.355       .  S
C95         N118   1.462       .  S
C96         N125   1.460       .  S
C97         N369   1.459       .  S
C98          N99   1.479       .  S
N99         C103   1.371       .  A
N99         C100   1.372       .  A
C100        C101   1.391       .  A
C100        C841   1.531       .  S
C101        C102   1.362       .  A
C101        H104   1.081       .  S
C102        C103   1.381       .  A
C102        H105   1.082       .  S
C103        C940   1.499       .  S
C106        C107   1.555       .  S
C106        C112   1.504       .  S
C106        C110   1.555   1_455  S
C106        C625   1.542   1_455  S
C107        H114   1.083       .  S
C107        C108   1.389       .  D
C108        C109   1.551       .  S
C108        C589   1.503       .  S
C109        C113   1.551       .  S
C109        C111   1.540       .  S
C109        H115   1.102       .  S
C110        H116   1.084       .  S
C110        C111   1.370   1_655  D
C111        C601   1.514       .  S
C112        H117   1.092       .  S
C112        C113   1.337       .  D
C113        C616   1.485       .  S
N118        C122   1.365       .  A
N118        C119   1.375       .  A
C119        C120   1.391       .  A
C119        C604   1.504       .  S
C120        C121   1.351       .  A
C120        H123   1.082       .  S
C121        C122   1.370       .  A
C121        H124   1.083       .  S
C122        C928   1.464       .  S
N125        C129   1.364       .  A
N125        C126   1.367       .  A
C126        C127   1.378       .  A
C126        C832   1.488       .  S
C127        C128   1.364       .  A
C127        H130   1.082       .  S
C128        C129   1.395       .  A
C128        H131   1.077       .  S
C129        C649   1.499       .  S
O132       Cu140   2.066       .  S
O132        C142   1.287       .  A
O133       Cu140   2.066   1_554  S
O133        C143   1.284       .  A
O134       Cu140   2.052       .  S
O134        C144   1.284       .  A
O135       Cu140   2.069   1_554  S
O135        C145   1.282       .  A
O136       Cu141   2.064       .  S
O136        C145   1.286       .  A
O137       Cu141   2.070       .  S
O137        C144   1.282   1_554  A
O138       Cu141   2.025       .  S
O138        C143   1.279       .  A
O139       Cu141   2.033       .  S
O139        C142   1.275   1_554  A
Cu140      Cu141   2.359   1_556  S
C142        N362   1.461       .  S
C143        N348   1.453       .  S
C144        N390   1.462       .  S
C145        N146   1.461       .  S
N146        C150   1.369       .  A
N146        C147   1.371       .  A
C147        C148   1.384       .  A
C147        C964   1.498       .  S
C148        C149   1.357       .  A
C148        H151   1.081       .  S
C149        C150   1.378       .  A
C149        H152   1.083       .  S
C150        C913   1.489       .  S
C153        C154   1.552       .  S
C153        C159   1.496       .  S
C153        C157   1.552       .  S
C153        C553   1.537       .  S
C154        H161   1.085       .  S
C154        C155   1.391       .  D
C155        C156   1.556   1_556  S
C155        C577   1.512       .  S
C156        C160   1.549       .  S
C156        C158   1.529       .  S
C156        H162   1.101       .  S
C157        H163   1.085       .  S
C157        C158   1.376   1_556  D
C158        C568   1.502       .  S
C159        H164   1.092       .  S
C159        C160   1.338   1_556  D
C160        C541   1.482       .  S
O165       Cu173   2.052   1_554  S
O165        C175   1.279       .  A
O166       Cu173   2.061   1_545  S
O166        C176   1.285       .  A
O167       Cu173   2.084   1_544  S
O167        C177   1.287       .  A
O168       Cu173   2.067       .  S
O168        C178   1.283       .  A
O169       Cu174   2.008       .  S
O169        C178   1.281       .  A
O170       Cu174   2.025   1_544  S
O170        C177   1.280       .  A
O171       Cu174   2.073   1_545  S
O171        C176   1.283       .  A
O172       Cu174   2.072   1_554  S
O172        C175   1.287       .  A
Cu173      Cu174   2.360       .  S
C175        N198   1.458       .  S
C176        N205   1.461       .  S
C177        N355   1.465       .  S
C178        N179   1.454       .  S
N179        C183   1.364       .  A
N179        C180   1.364       .  A
C180        C181   1.378       .  A
C180        C796   1.478       .  S
C181        C182   1.364       .  A
C181        H184   1.083       .  S
C182        C183   1.385       .  A
C182        H185   1.083       .  S
C183        C892   1.495       .  S
C186        C187   1.547       .  S
C186        C192   1.512       .  S
C186        C190   1.554   1_565  S
C186        C529   1.533       .  S
C187        H194   1.083       .  S
C187        C188   1.381       .  D
C188        C189   1.559   1_565  S
C188        C505   1.515       .  S
C189        C193   1.546       .  S
C189        C191   1.535       .  S
C189        H195   1.109       .  S
C190        H196   1.083       .  S
C190        C191   1.371       .  D
C191        C493   1.486       .  S
C192        H197   1.090       .  S
C192        C193   1.335   1_565  D
C193        C520   1.481       .  S
N198        C202   1.365       .  A
N198        C199   1.372       .  A
C199        C200   1.384       .  A
C199        C508   1.501       .  S
C200        C201   1.362       .  A
C200        H203   1.082       .  S
C201        C202   1.378       .  A
C201        H204   1.083       .  S
C202        C877   1.490       .  S
N205        C209   1.368       .  A
N205        C206   1.371       .  A
C206        C207   1.385       .  A
C206        C784   1.492       .  S
C207        C208   1.357       .  A
C207        H210   1.083       .  S
C208        C209   1.375       .  A
C208        H211   1.083       .  S
C209        C556   1.478       .  S
O212       Cu220   2.034       .  S
O212        C222   1.275   1_655  A
O213       Cu220   2.029       .  S
O213        C223   1.280       .  A
O214       Cu220   2.087       .  S
O214        C224   1.288       .  A
O215       Cu220   2.094       .  S
O215        C225   1.288   1_655  A
O216       Cu221   2.021       .  S
O216        C225   1.279       .  A
O217       Cu221   2.006       .  S
O217        C224   1.276   1_455  A
O218       Cu221   2.068       .  S
O218        C223   1.283   1_455  A
O219       Cu221   2.080       .  S
O219        C222   1.291       .  A
Cu220      Cu221   2.361   1_655  S
C222        N320   1.460       .  S
C223        N341   1.453       .  S
C224        N376   1.459       .  S
C225        N226   1.459       .  S
N226        C230   1.366       .  A
N226        C227   1.376       .  A
C227        C228   1.381       .  A
C227        C724   1.493       .  S
C228        C229   1.355       .  A
C228        H231   1.083       .  S
C229        C230   1.380       .  A
C229        H232   1.083       .  S
C230        C865   1.489       .  S
O233       Cu241   2.033       .  S
O233        C243   1.277   1_545  A
O234       Cu241   2.034       .  S
O234        C244   1.281       .  A
O235       Cu241   2.069   1_565  S
O235        C245   1.284       .  A
O236       Cu241   2.072       .  S
O236        C246   1.287       .  A
O237       Cu242   2.055   1_545  S
O237        C246   1.279       .  A
O238       Cu242   2.037       .  S
O238        C245   1.281       .  A
O239       Cu242   2.069       .  S
O239        C244   1.284   1_565  A
O240       Cu242   2.060       .  S
O240        C243   1.288       .  A
Cu241      Cu242   2.358   1_545  S
C243        N334   1.460       .  S
C244        N313   1.461       .  S
C245        N247   1.461       .  S
C246        N383   1.459       .  S
N247        C251   1.369       .  A
N247        C248   1.369       .  A
C248        C249   1.375       .  A
C248        C772   1.490       .  S
C249        C250   1.355       .  A
C249        H252   1.083       .  S
C250        C251   1.392       .  A
C250        H253   1.080       .  S
C251        C820   1.512       .  S
C254        C255   1.538       .  S
C254        C260   1.505       .  S
C254        C258   1.554       .  S
C254        C445   1.539       .  S
C255        H262   1.076       .  S
C255        C256   1.388       .  D
C256        C257   1.555       .  S
C256        C469   1.511   1_545  S
C257        C261   1.535       .  S
C257        C259   1.550       .  S
C257        H263   1.099   1_545  S
C258        H264   1.085       .  S
C258        C259   1.380       .  D
C259        C484   1.513       .  S
C260        H265   1.091       .  S
C260        C261   1.335       .  D
C261        C457   1.475   1_545  S
O266       Cu274   2.059   1_455  S
O266        C276   1.286   1_545  A
O267       Cu274   2.057       .  S
O267        C277   1.281       .  A
O268       Cu274   2.053   1_455  S
O268        C278   1.281       .  A
O269       Cu274   2.031   1_565  S
O269        C279   1.284       .  A
O270       Cu275   2.024   1_665  S
O270        C279   1.275       .  A
O271       Cu275   2.043       .  S
O271        C278   1.284       .  A
O272       Cu275   2.050   1_655  S
O272        C277   1.284       .  A
O273       Cu275   2.060   1_565  S
O273        C276   1.281       .  A
Cu274      Cu275   2.360   1_655  S
C276        N306   1.461       .  S
C277        N299   1.455       .  S
C278        N327   1.458       .  S
C279        N280   1.455       .  S
N280        C284   1.367       .  A
N280        C281   1.360       .  A
C281        C282   1.375       .  A
C281        C748   1.484       .  S
C282        C283   1.369       .  A
C282        H285   1.083       .  S
C283        C284   1.393       .  A
C283        H286   1.081       .  S
C284        C700   1.519       .  S
C287        C288   1.552       .  S
C287        C293   1.508       .  S
C287        C291   1.550       .  S
C287        C412   1.544       .  S
C288        H295   1.086       .  S
C288        C289   1.379   1_655  D
C289        C290   1.552   1_455  S
C289        C424   1.517       .  S
C290        C294   1.555       .  S
C290        C292   1.548       .  S
C290        H296   1.109       .  S
C291        H297   1.084       .  S
C291        C292   1.376       .  D
C292        C433   1.486       .  S
C293        H298   1.087       .  S
C293        C294   1.347       .  D
C294        C400   1.501       .  S
N299        C303   1.369       .  A
N299        C300   1.364       .  A
C300        C301   1.381       .  A
C300        C736   1.498       .  S
C301        C302   1.363       .  A
C301        H304   1.083       .  S
C302        C303   1.381       .  A
C302        H305   1.083       .  S
C303        C409   1.488       .  S
N306        C310   1.365       .  A
N306        C307   1.368       .  A
C307        C308   1.387       .  A
C307        C688   1.510       .  S
C308        C309   1.360       .  A
C308        H311   1.082       .  S
C309        C310   1.377       .  A
C309        H312   1.083       .  S
C310        C460   1.481       .  S
N313        C317   1.361       .  A
N313        C314   1.371       .  A
C314        C315   1.380       .  A
C314        C808   1.491       .  S
C315        C316   1.361       .  A
C315        H318   1.083       .  S
C316        C317   1.381       .  A
C316        H319   1.082       .  S
C317        C472   1.486   1_545  S
N320        C324   1.365       .  A
N320        C321   1.363       .  A
C321        C322   1.384       .  A
C321        C853   1.510       .  S
C322        C323   1.371       .  A
C322        H325   1.082       .  S
C323        C324   1.383       .  A
C323        H326   1.082       .  S
C324        C421   1.507       .  S
N327        C331   1.366       .  A
N327        C328   1.366       .  A
C328        C329   1.383       .  A
C328        C397   1.498       .  S
C329        C330   1.364       .  A
C329        H332   1.083       .  S
C330        C331   1.379       .  A
C330        H333   1.083       .  S
C331        C448   1.486       .  S
N334        C338   1.368       .  A
N334        C335   1.368       .  A
C335        C336   1.383       .  A
C335        C760   1.507   1_565  S
C336        C337   1.362       .  A
C336        H339   1.077       .  S
C337        C338   1.377       .  A
C337        H340   1.083       .  S
C338        C532   1.484       .  S
N341        C345   1.365       .  A
N341        C342   1.365       .  A
C342        C343   1.380       .  A
C342        C712   1.482       .  S
C343        C344   1.355       .  A
C343        H346   1.083       .  S
C344        C345   1.381       .  A
C344        H347   1.083       .  S
C345        C628   1.483       .  S
N348        C352   1.367       .  A
N348        C349   1.362       .  A
C349        C350   1.384       .  A
C349        C952   1.482       .  S
C350        C351   1.351       .  A
C350        H353   1.081       .  S
C351        C352   1.380       .  A
C351        H354   1.084       .  S
C352        C565   1.478       .  S
N355        C359   1.373       .  A
N355        C356   1.366       .  A
C356        C357   1.386       .  A
C356        C496   1.496       .  S
C357        C358   1.361       .  A
C357        H360   1.081       .  S
C358        C359   1.379       .  A
C358        H361   1.083       .  S
C359        C544   1.499       .  S
N362        C366   1.369       .  A
N362        C363   1.367       .  A
C363        C364   1.385       .  A
C363        C661   1.505   1_556  S
C364        C365   1.364       .  A
C364        H367   1.080       .  S
C365        C366   1.379       .  A
C365        H368   1.083       .  S
C366        C904   1.490       .  S
N369        C373   1.361       .  A
N369        C370   1.368       .  A
C370        C371   1.391       .  A
C370        C592   1.523       .  S
C371        C372   1.369       .  A
C371        H374   1.083       .  S
C372        C373   1.378       .  A
C372        H375   1.083       .  S
C373        C637   1.488       .  S
N376        C380   1.376   1_655  A
N376        C377   1.368       .  A
C377        C378   1.383   1_655  A
C377        C436   1.491       .  S
C378        C379   1.355       .  A
C378        H381   1.077       .  S
C379        C380   1.373       .  A
C379        H382   1.083       .  S
C380        C613   1.491       .  S
N383        C387   1.369       .  A
N383        C384   1.364       .  A
C384        C385   1.381       .  A
C384        C517   1.490       .  S
C385        C386   1.363       .  A
C385        H388   1.082       .  S
C386        C387   1.382       .  A
C386        H389   1.083       .  S
C387        C481   1.493       .  S
N390        C394   1.371       .  A
N390        C391   1.372       .  A
C391        C392   1.380       .  A
C391        C580   1.494       .  S
C392        C393   1.358       .  A
C392        H395   1.083       .  S
C393        C394   1.385       .  A
C393        H396   1.082       .  S
C394        C676   1.510       .  S
C397        C398   1.405       .  A
C397        C402   1.428       .  A
C398        C399   1.412   1_455  A
C398        H407   1.080   1_455  S
C399        C400   1.418       .  A
C399        S403   1.802       .  S
C400        C401   1.389   1_655  A
C401        C402   1.403       .  A
C401        H408   1.074       .  S
C402        S404   1.807       .  S
S403        H406   1.408       .  S
S404        H405   1.407       .  S
C409        C410   1.402       .  A
C409        C414   1.406       .  A
C410        C411   1.406       .  A
C410        H419   1.081       .  S
C411        C412   1.426       .  A
C411        S415   1.806       .  S
C412        C413   1.422       .  A
C413        C414   1.407       .  A
C413        H420   1.081       .  S
C414        S416   1.802       .  S
S415        H418   1.407       .  S
S416        H417   1.406       .  S
C421        C422   1.405       .  A
C421        C426   1.420       .  A
C422        C423   1.412       .  A
C422        H431   1.082       .  S
C423        C424   1.414       .  A
C423        S427   1.797       .  S
C424        C425   1.409       .  A
C425        C426   1.410       .  A
C425        H432   1.081   1_455  S
C426        S428   1.807   1_455  S
S427        H430   1.406       .  S
S428        H429   1.406       .  S
C433        C434   1.404       .  A
C433        C438   1.407       .  A
C434        C435   1.404       .  A
C434        H443   1.082       .  S
C435        C436   1.408       .  A
C435        S439   1.790       .  S
C436        C437   1.410       .  A
C437        C438   1.407       .  A
C437        H444   1.076       .  S
C438        S440   1.804       .  S
S439        H442   1.404       .  S
S440        H441   1.407       .  S
C445        C446   1.413       .  A
C445        C450   1.431       .  A
C446        C447   1.396       .  A
C446        H455   1.082       .  S
C447        C448   1.409       .  A
C447        S451   1.796       .  S
C448        C449   1.400       .  A
C449        C450   1.411       .  A
C449        H456   1.083       .  S
C450        S452   1.805       .  S
S451        H454   1.407       .  S
S452        H453   1.407       .  S
C457        C458   1.411   1_565  A
C457        C462   1.405       .  A
C458        C459   1.403       .  A
C458        H467   1.084       .  S
C459        C460   1.410   1_545  A
C459        S463   1.803       .  S
C460        C461   1.406       .  A
C461        C462   1.398       .  A
C461        H468   1.078       .  S
C462        S464   1.800       .  S
S463        H466   1.406       .  S
S464        H465   1.405       .  S
C469        C470   1.410       .  A
C469        C474   1.411       .  A
C470        C471   1.397       .  A
C470        H479   1.077       .  S
C471        C472   1.408       .  A
C471        S475   1.792       .  S
C472        C473   1.410       .  A
C473        C474   1.400       .  A
C473        H480   1.078   1_565  S
C474        S476   1.807       .  S
S475        H478   1.399   1_565  S
S476        H477   1.408       .  S
C481        C482   1.407       .  A
C481        C486   1.412       .  A
C482        C483   1.407       .  A
C482        H491   1.084       .  S
C483        C484   1.418       .  A
C483        S487   1.803       .  S
C484        C485   1.413       .  A
C485        C486   1.408       .  A
C485        H492   1.082       .  S
C486        S488   1.805       .  S
S487        H490   1.407       .  S
S488        H489   1.407       .  S
C493        C494   1.404       .  A
C493        C498   1.405       .  A
C494        C495   1.403       .  A
C494        H503   1.081       .  S
C495        C496   1.413       .  A
C495        S499   1.790   1_545  S
C496        C497   1.411       .  A
C497        C498   1.395       .  A
C497        H504   1.084       .  S
C498        S500   1.799       .  S
S499        H502   1.399       .  S
S500        H501   1.407       .  S
C505        C506   1.406       .  A
C505        C510   1.429       .  A
C506        C507   1.406       .  A
C506        H515   1.083       .  S
C507        C508   1.418       .  A
C507        S511   1.805       .  S
C508        C509   1.403       .  A
C509        C510   1.410       .  A
C509        H516   1.081       .  S
C510        S512   1.811       .  S
S511        H514   1.407       .  S
S512        H513   1.406       .  S
C517        C518   1.407       .  A
C517        C522   1.415       .  A
C518        C519   1.406       .  A
C518        H527   1.084       .  S
C519        C520   1.413       .  A
C519        S523   1.802   1_545  S
C520        C521   1.405       .  A
C521        C522   1.400       .  A
C521        H528   1.082       .  S
C522        S524   1.804       .  S
S523        H526   1.407       .  S
S524        H525   1.407       .  S
C529        C530   1.416       .  A
C529        C534   1.425       .  A
C530        C531   1.407       .  A
C530        H539   1.082       .  S
C531        C532   1.411       .  A
C531        S535   1.802       .  S
C532        C533   1.399       .  A
C533        C534   1.399       .  A
C533        H540   1.078   1_565  S
C534        S536   1.807   1_565  S
S535        H538   1.406       .  S
S536        H537   1.407       .  S
C541        C542   1.408       .  A
C541        C546   1.409       .  A
C542        C543   1.409       .  A
C542        H551   1.082       .  S
C543        C544   1.419       .  A
C543        S547   1.803       .  S
C544        C545   1.409       .  A
C545        C546   1.404       .  A
C545        H552   1.084       .  S
C546        S548   1.800       .  S
S547        H550   1.407       .  S
S548        H549   1.408       .  S
C553        C554   1.410       .  A
C553        C558   1.437       .  A
C554        C555   1.409       .  A
C554        H563   1.080       .  S
C555        C556   1.413       .  A
C555        S559   1.806       .  S
C556        C557   1.389       .  A
C557        C558   1.400       .  A
C557        H564   1.083       .  S
C558        S560   1.810   1_556  S
S559        H562   1.407       .  S
S560        H561   1.407       .  S
C565        C566   1.405       .  A
C565        C570   1.414       .  A
C566        C567   1.403       .  A
C566        H575   1.084       .  S
C567        C568   1.418       .  A
C567        S571   1.803       .  S
C568        C569   1.408   1_554  A
C569        C570   1.396   1_556  A
C569        H576   1.082       .  S
C570        S572   1.801   1_554  S
S571        H574   1.404       .  S
S572        H573   1.404       .  S
C577        C578   1.411       .  A
C577        C582   1.416       .  A
C578        C579   1.404       .  A
C578        H587   1.082       .  S
C579        C580   1.413       .  A
C579        S583   1.804       .  S
C580        C581   1.406       .  A
C581        C582   1.409       .  A
C581        H588   1.078       .  S
C582        S584   1.808       .  S
S583        H586   1.406       .  S
S584        H585   1.407   1_556  S
C589        C590   1.405       .  A
C589        C594   1.410       .  A
C590        C591   1.410       .  A
C590        H599   1.083       .  S
C591        C592   1.420       .  A
C591        S595   1.785       .  S
C592        C593   1.415       .  A
C593        C594   1.403       .  A
C593        H600   1.083       .  S
C594        S596   1.803       .  S
S595        H598   1.399       .  S
S596        H597   1.407       .  S
C601        C602   1.417   1_455  A
C601        C606   1.413       .  A
C602        C603   1.407       .  A
C602        H611   1.079       .  S
C603        C604   1.414       .  A
C603        S607   1.808       .  S
C604        C605   1.412   1_655  A
C605        C606   1.400       .  A
C605        H612   1.083       .  S
C606        S608   1.803       .  S
S607        H610   1.406       .  S
S608        H609   1.406       .  S
C613        C614   1.406       .  A
C613        C618   1.414       .  A
C614        C615   1.405       .  A
C614        H623   1.084       .  S
C615        C616   1.413       .  A
C615        S619   1.800       .  S
C616        C617   1.408       .  A
C617        C618   1.408       .  A
C617        H624   1.083   1_455  S
C618        S620   1.801   1_455  S
S619        H622   1.406       .  S
S620        H621   1.407       .  S
C625        C626   1.421       .  A
C625        C630   1.424   1_655  A
C626        C627   1.393       .  A
C626        H635   1.078       .  S
C627        C628   1.405       .  A
C627        S631   1.807       .  S
C628        C629   1.403   1_655  A
C629        C630   1.407       .  A
C629        H636   1.079       .  S
C630        S632   1.796       .  S
S631        H634   1.407       .  S
S632        H633   1.406       .  S
C637        C638   1.400       .  A
C637        C642   1.409       .  A
C638        C639   1.402       .  A
C638        H647   1.082       .  S
C639        C640   1.429       .  A
C639        S643   1.809       .  S
C640        C641   1.418       .  A
C641        C642   1.406       .  A
C641        H648   1.080       .  S
C642        S644   1.804       .  S
S643        H646   1.406       .  S
S644        H645   1.406       .  S
C649        C650   1.412       .  A
C649        C654   1.414       .  A
C650        C651   1.402       .  A
C650        H659   1.082       .  S
C651        C652   1.406       .  A
C651        S655   1.791       .  S
C652        C653   1.416       .  A
C653        C654   1.412       .  A
C653        H660   1.084   1_556  S
C654        S656   1.801   1_556  S
S655        H658   1.407       .  S
S656        H657   1.403       .  S
C661        C662   1.411       .  A
C661        C666   1.419       .  A
C662        C663   1.399       .  A
C662        H671   1.082   1_554  S
C663        C664   1.408       .  A
C663        S667   1.804       .  S
C664        C665   1.399       .  A
C665        C666   1.401       .  A
C665        H672   1.084       .  S
C666        S668   1.782       .  S
S667        H670   1.407       .  S
S668        H669   1.397       .  S
C673        C674   1.414       .  A
C673        C678   1.408       .  A
C674        C675   1.412       .  A
C674        H683   1.081   1_556  S
C675        C676   1.419       .  A
C675        S679   1.807   1_556  S
C676        C677   1.410       .  A
C677        C678   1.401       .  A
C677        H684   1.083       .  S
C678        S680   1.795       .  S
S679        H682   1.406       .  S
S680        H681   1.406       .  S
C685        C686   1.418       .  A
C685        C690   1.430       .  A
C686        C687   1.413       .  A
C686        H695   1.081       .  S
C687        C688   1.416       .  A
C687        S691   1.805       .  S
C688        C689   1.403       .  A
C689        C690   1.404       .  A
C689        H696   1.082   1_455  S
C690        S692   1.809   1_455  S
S691        H694   1.407       .  S
S692        H693   1.407       .  S
C697        C698   1.411       .  A
C697        C702   1.407       .  A
C698        C699   1.419       .  A
C698        H707   1.083       .  S
C699        C700   1.422       .  A
C699        S703   1.794       .  S
C700        C701   1.416       .  A
C701        C702   1.400       .  A
C701        H708   1.084       .  S
C702        S704   1.788       .  S
S703        H706   1.407       .  S
S704        H705   1.406       .  S
C709        C710   1.409       .  A
C709        C714   1.419       .  A
C710        C711   1.393       .  A
C710        H719   1.081   1_655  S
C711        C712   1.409       .  A
C711        S715   1.794   1_655  S
C712        C713   1.403       .  A
C713        C714   1.405       .  A
C713        H720   1.083       .  S
C714        S716   1.800       .  S
S715        H718   1.403       .  S
S716        H717   1.407       .  S
C721        C722   1.412       .  A
C721        C726   1.417       .  A
C722        C723   1.406       .  A
C722        H731   1.082       .  S
C723        C724   1.415       .  A
C723        S727   1.805       .  S
C724        C725   1.406       .  A
C725        C726   1.407       .  A
C725        H732   1.080       .  S
C726        S728   1.804   1_455  S
S727        H730   1.406       .  S
S728        H729   1.407   1_655  S
C733        C734   1.413       .  A
C733        C738   1.433   1_545  A
C734        C735   1.412       .  A
C734        H743   1.080       .  S
C735        C736   1.413       .  A
C735        S739   1.806       .  S
C736        C737   1.399       .  A
C737        C738   1.405   1_545  A
C737        H744   1.083   1_545  S
C738        S740   1.811       .  S
S739        H742   1.406       .  S
S740        H741   1.406       .  S
C745        C746   1.404       .  A
C745        C750   1.411       .  A
C746        C747   1.385       .  A
C746        H755   1.080       .  S
C747        C748   1.410       .  A
C747        S751   1.796       .  S
C748        C749   1.409       .  A
C749        C750   1.414       .  A
C749        H756   1.082       .  S
C750        S752   1.802   1_565  S
S751        H754   1.406       .  S
S752        H753   1.407       .  S
C757        C758   1.415       .  A
C757        C762   1.403       .  A
C758        C759   1.419       .  A
C758        H767   1.082       .  S
C759        C760   1.418       .  A
C759        S763   1.802       .  S
C760        C761   1.416       .  A
C761        C762   1.410       .  A
C761        H768   1.080       .  S
C762        S764   1.797       .  S
S763        H766   1.406       .  S
S764        H765   1.407       .  S
C769        C770   1.411       .  A
C769        C774   1.428       .  A
C770        C771   1.401       .  A
C770        H779   1.076       .  S
C771        C772   1.411       .  A
C771        S775   1.800       .  S
C772        C773   1.399       .  A
C773        C774   1.405       .  A
C773        H780   1.083       .  S
C774        S776   1.810       .  S
S775        H778   1.406       .  S
S776        H777   1.406       .  S
C781        C782   1.408   1_545  A
C781        C786   1.422       .  A
C782        C783   1.401       .  A
C782        H791   1.075       .  S
C783        C784   1.411   1_565  A
C783        S787   1.804       .  S
C784        C785   1.404       .  A
C785        C786   1.409       .  A
C785        H792   1.082       .  S
C786        S788   1.802       .  S
S787        H790   1.408       .  S
S788        H789   1.402       .  S
C793        C794   1.408       .  A
C793        C798   1.429       .  A
C794        C795   1.403       .  A
C794        H803   1.084       .  S
C795        C796   1.411       .  A
C795        S799   1.803       .  S
C796        C797   1.395       .  A
C797        C798   1.392       .  A
C797        H804   1.083       .  S
C798        S800   1.812       .  S
S799        H802   1.406       .  S
S800        H801   1.390       .  S
C805        C806   1.413       .  A
C805        C810   1.410   1_545  A
C806        C807   1.407       .  A
C806        H815   1.082       .  S
C807        C808   1.413       .  A
C807        S811   1.803       .  S
C808        C809   1.406   1_545  A
C809        C810   1.402       .  A
C809        H816   1.077       .  S
C810        S812   1.801       .  S
S811        H814   1.406       .  S
S812        H813   1.408       .  S
C817        C818   1.416       .  A
C817        C822   1.425       .  A
C818        C819   1.405       .  A
C818        H827   1.079       .  S
C819        C820   1.416       .  A
C819        S823   1.806       .  S
C820        C821   1.409       .  A
C821        C822   1.402       .  A
C821        H828   1.079       .  S
C822        S824   1.809       .  S
S823        H826   1.406   1_565  S
S824        H825   1.407       .  S
C829        C830   1.413       .  A
C829        C834   1.431       .  A
C830        C831   1.400       .  A
C830        H839   1.080       .  S
C831        C832   1.412       .  A
C831        S835   1.804       .  S
C832        C833   1.399       .  A
C833        C834   1.405       .  A
C833        H840   1.082       .  S
C834        S836   1.809       .  S
S835        H838   1.406       .  S
S836        H837   1.407       .  S
C841        C842   1.424       .  A
C841        C846   1.421       .  A
C842        C843   1.402       .  A
C842        H851   1.078       .  S
C843        C844   1.401       .  A
C843        S847   1.801       .  S
C844        C845   1.412       .  A
C845        C846   1.416       .  A
C845        H852   1.083       .  S
C846        S848   1.802       .  S
S847        H850   1.406       .  S
S848        H849   1.406       .  S
C853        C854   1.401       .  A
C853        C858   1.426       .  A
C854        C855   1.414   1_455  A
C854        H863   1.081       .  S
C855        C856   1.431   1_655  A
C855        S859   1.805       .  S
C856        C857   1.407       .  A
C857        C858   1.401       .  A
C857        H864   1.080       .  S
C858        S860   1.805       .  S
S859        H862   1.407       .  S
S860        H861   1.404       .  S
C865        C866   1.400       .  A
C865        C870   1.413       .  A
C866        C867   1.399       .  A
C866        H875   1.084       .  S
C867        C868   1.426       .  A
C867        S871   1.811       .  S
C868        C869   1.406       .  A
C869        C870   1.411       .  A
C869        H876   1.082   1_455  S
C870        S872   1.803   1_455  S
S871        H874   1.407       .  S
S872        H873   1.406       .  S
C877        C878   1.403       .  A
C877        C882   1.409       .  A
C878        C879   1.411       .  A
C878        H887   1.082       .  S
C879        C880   1.428       .  A
C879        S883   1.808       .  S
C880        C881   1.410       .  A
C881        C882   1.404       .  A
C881        H888   1.078   1_554  S
C882        S884   1.805   1_554  S
S883        H886   1.407       .  S
S884        H885   1.408       .  S
C889        C890   1.397       .  A
C889        C894   1.410       .  A
C890        C891   1.403       .  A
C890        H899   1.083       .  S
C891        C892   1.423       .  A
C891        S895   1.804       .  S
C892        C893   1.402       .  A
C893        C894   1.412       .  A
C893        H900   1.083       .  S
C894        S896   1.796   1_556  S
S895        H898   1.407       .  S
S896        H897   1.407       .  S
C901        C902   1.410       .  A
C901        C906   1.409       .  A
C902        C903   1.409       .  A
C902        H911   1.084       .  S
C903        C904   1.415       .  A
C903        S907   1.802       .  S
C904        C905   1.405       .  A
C905        C906   1.398       .  A
C905        H912   1.080       .  S
C906        S908   1.796       .  S
S907        H910   1.406       .  S
S908        H909   1.403       .  S
C913        C914   1.401       .  A
C913        C918   1.410       .  A
C914        C915   1.410       .  A
C914        H923   1.083       .  S
C915        C916   1.432       .  A
C915        S919   1.808   1_554  S
C916        C917   1.416       .  A
C917        C918   1.402       .  A
C917        H924   1.078       .  S
C918        S920   1.805       .  S
S919        H922   1.407       .  S
S920        H921   1.407       .  S
C925        C926   1.404       .  A
C925        C930   1.428       .  A
C926        C927   1.399       .  A
C926        H935   1.075       .  S
C927        C928   1.410       .  A
C927        S931   1.804       .  S
C928        C929   1.393       .  A
C929        C930   1.396       .  A
C929        H936   1.083       .  S
C930        S932   1.813   1_554  S
S931        H934   1.407       .  S
S932        H933   1.407       .  S
C937        C938   1.410       .  A
C937        C942   1.415       .  A
C938        C939   1.406       .  A
C938        H947   1.082       .  S
C939        C940   1.418       .  A
C939        S943   1.804   1_556  S
C940        C941   1.409       .  A
C941        C942   1.409       .  A
C941        H948   1.083       .  S
C942        S944   1.800       .  S
S943        H946   1.407       .  S
S944        H945   1.409       .  S
C949        C950   1.408       .  A
C949        C954   1.411   1_554  A
C950        C951   1.382       .  A
C950        H959   1.083       .  S
C951        C952   1.412       .  A
C951        S955   1.809       .  S
C952        C953   1.410       .  A
C953        C954   1.410   1_554  A
C953        H960   1.081   1_554  S
C954        S956   1.802       .  S
S955        H958   1.407       .  S
S956        H957   1.405       .  S
C961        C962   1.410       .  A
C961        C966   1.422       .  A
C962        C963   1.404       .  A
C962        H971   1.081       .  S
C963        C964   1.419       .  A
C963        S967   1.806       .  S
C964        C965   1.404       .  A
C965        C966   1.408       .  A
C965        H972   1.084       .  S
C966        S968   1.802   1_554  S
S967        H970   1.407       .  S
S968        H969   1.402       .  S
