geometry optimzed in LAMMPS
_audit_creation_date              2020-11-30 
_audit_creation_method            'lammps2cif' 
_symmetry_space_group_name_H-M    'P1' 
_symmetry_Int_Tables_number       1 
_symmetry_cell_setting            triclinic 
loop_ 
_symmetry_equiv_pos_as_xyz 
  x,y,z 
_cell_length_a                    44.15654783 
_cell_length_b                    36.64103208958461 
_cell_length_c                    37.097410692364086 
_cell_angle_alpha                 90.92046031729609 
_cell_angle_beta                  103.8331156145829 
_cell_angle_gamma                 89.6806495334885 
loop_ 
_atom_site_label 
_atom_site_type_symbol 
_atom_site_fract_x 
_atom_site_fract_y 
_atom_site_fract_z 
_atom_site_charge 
C1          C  0.29039920  0.20174946  0.42150325     0.88000
C2          C  0.32456443  0.20117581  0.44335497    -0.52200
C3          C  0.32897992  0.18904662  0.47892013     0.10900
C4          C  0.29818591  0.17854097  0.48906383     0.21900
C5          C  0.27843335  0.16289825  0.42364963    -0.52900
C6          C  0.28228485  0.15065112  0.45888090     0.11100
C7          C  0.27354888  0.22514056  0.44534858    -0.52500
C8          C  0.27728804  0.21288218  0.48088133     0.11600
H9          H  0.34327701  0.21071782  0.43161619     0.16100
H10         H  0.30413901  0.17609578  0.02487884     0.01900
H11         H  0.26705530  0.14680293  0.39938058     0.16400
H12         H  0.26005572  0.24908688  0.43462830     0.16200
C13         C  0.45738601  0.20738046  0.08346316     0.88000
C14         C  0.42307100  0.20911967  0.06199540    -0.52200
C15         C  0.41817624  0.19904607  0.02539462     0.10900
C16         C  0.44836666  0.18872977  0.01377038     0.21900
C17         C  0.46772283  0.16811471  0.07715359    -0.52900
C18         C  0.46327317  0.15856478  0.04048628     0.11100
C19         C  0.47482619  0.23159114  0.06158437    -0.52500
C20         C  0.47015881  0.22163767  0.02492969     0.11600
H21         H  0.40457358  0.21782681  0.07487066     0.16100
H22         H  0.44447925  0.17382478  0.47955799     0.01900
H23         H  0.47838696  0.15001060  0.09955848     0.16400
H24         H  0.48926714  0.25441698  0.07422226     0.16200
O25         O  0.22369569  0.44726305  0.01383600    -0.70200
O26         O  0.24230521  0.04990506  0.48847941    -0.70500
O27         O  0.21676762  0.49004091  0.43668357    -0.70300
O28         O  0.26231039  0.00610894  0.05585705    -0.70300
O29         O  0.28617386  0.50105415  0.05847920    -0.70300
O30         O  0.26158343  0.46231133  0.44698048    -0.70300
O31         O  0.28937644  0.02793900  0.50377957    -0.70200
O32         O  0.27340921  0.43653742  0.02323297    -0.70400
V33         V  0.24892205  0.99274447  0.00455248     1.35200
V34         V  0.27864447  0.48500158  0.00808521     1.35200
C35         C  0.24644695  0.42563396  0.02390417     0.79000
C36         C  0.27144866  0.05479288  0.49389401     0.79100
C37         C  0.23650030  0.47153554  0.42445545     0.78900
C38         C  0.29103793  0.00422441  0.07188913     0.78900
O39         O  0.46219639  0.47473654  0.04367461    -0.70200
O40         O  0.46084383  0.48668079  0.46234297    -0.70500
O41         O  0.49837199  0.43247955  0.49547097    -0.70300
O42         O  0.46084331  0.02820064  0.02936844    -0.70300
O43         O  0.03665546  0.05875814  0.02038495    -0.70300
O44         O  0.04005547  0.47041470  0.48790354    -0.70300
O45         O  0.03596556  0.03369321  0.45604910    -0.70200
O46         O  0.03762992  0.49454431  0.03388307    -0.70400
V47         V  0.45172135  0.48459391  0.99225770     1.35200
V48         V  0.04583126  0.01186420  0.00265391     1.35200
C49         C  0.02207936  0.48237820  0.05559992     0.79000
C50         C  0.47904572  0.00008856  0.42877569     0.79100
C51         C  0.02412848  0.44143394  0.48383947     0.78900
C52         C  0.47685313  0.05627077  0.02763534     0.78900
C53         C  0.20492941  0.28755819  0.08292434     0.88000
C54         C  0.22336955  0.26320977  0.06176538    -0.52200
C55         C  0.21894624  0.27176525  0.02510309     0.10900
C56         C  0.19583039  0.30343312  0.01309392     0.21900
C57         C  0.21419357  0.32681476  0.07634844    -0.52900
C58         C  0.20924977  0.33506079  0.03960670     0.11100
C59         C  0.17077533  0.28389835  0.06106958    -0.52500
C60         C  0.16592321  0.29229109  0.02436114     0.11600
H61         H  0.23835743  0.24129709  0.07501871     0.16100
H62         H  0.19982705  0.31495179  0.49179127     0.01900
H63         H  0.22307229  0.34644776  0.09856845     0.16400
H64         H  0.15240162  0.27484324  0.07366524     0.16200
C65         C  0.04753593  0.29206453  0.42548224     0.88000
C66         C  0.02739291  0.26844555  0.44444070    -0.52200
C67         C  0.03006314  0.27720824  0.48102179     0.10900
C68         C  0.05327367  0.30840032  0.49530349     0.21900
C69         C  0.03852338  0.33177056  0.43239757    -0.52900
C70         C  0.04120441  0.34013673  0.46911313     0.11100
C71         C  0.08086577  0.28779203  0.44919877    -0.52500
C72         C  0.08419138  0.29672232  0.48587759     0.11600
H73         H  0.01239439  0.24692859  0.42976402     0.16100
H74         H  0.04983217  0.30944934  0.01857705     0.01900
H75         H  0.02948621  0.35082506  0.41027062     0.16400
H76         H  0.09994382  0.27826376  0.43770581     0.16200
C77         C  0.03108950  0.45411920  0.15827224     0.88000
C78         C  0.06634477  0.45484514  0.17734558    -0.52200
C79         C  0.07292380  0.44302477  0.21342750     0.10900
C80         C  0.04387175  0.43119698  0.22635561     0.21900
C81         C  0.02068615  0.41491696  0.16203739    -0.52900
C82         C  0.02748245  0.40275760  0.19740402     0.11100
C83         C  0.01580118  0.47675622  0.18420694    -0.52500
C84         C  0.02218345  0.46467563  0.21997777     0.11600
H85         H  0.08404108  0.46497119  0.16432619     0.16100
H86         H  0.04897088  0.42126613  0.25533902     0.01900
H87         H  0.00830441  0.39832419  0.13863979     0.16400
H88         H  0.00132551  0.50026958  0.17446270     0.16200
C89         C  0.19846167  0.45427428  0.32024948     0.88000
C90         C  0.16511824  0.45942624  0.29632320    -0.52200
C91         C  0.16163466  0.44942880  0.25975043     0.10900
C92         C  0.19204408  0.43571372  0.25073092     0.21900
C93         C  0.20622873  0.41411368  0.31430617    -0.52900
C94         C  0.20289011  0.40445572  0.27789682     0.11100
C95         C  0.21918992  0.47604000  0.30069642    -0.52500
C96         C  0.21638152  0.46601373  0.26437073     0.11600
H97         H  0.14609668  0.46981600  0.30745969     0.16100
H98         H  0.18943822  0.42751482  0.22117345     0.03500
H99         H  0.21341074  0.39497025  0.33682310     0.16400
H100        H  0.23477444  0.49725597  0.31492284     0.16200
O101        O  0.21859921  0.25552637  0.19726582    -0.70200
O102        O  0.22837222  0.22542551  0.29672226    -0.70500
O103        O  0.21678644  0.28911033  0.26097269    -0.70300
O104        O  0.23004469  0.19177285  0.23190750    -0.70300
O105        O  0.27996521  0.20170407  0.24364659    -0.70300
O106        O  0.26662725  0.29950392  0.27209643    -0.70300
O107        O  0.27811324  0.23612975  0.30752121    -0.70200
O108        O  0.26841343  0.26558099  0.20770646    -0.70400
V109        V  0.22445575  0.24058825  0.24703071     1.35200
V110        V  0.27233055  0.25050585  0.25749011     1.35200
C111        C  0.24175222  0.26580133  0.18557361     0.79000
C112        C  0.25487041  0.22605973  0.31917321     0.79100
C113        C  0.23940501  0.31088333  0.27118341     0.78900
C114        C  0.25717053  0.18025421  0.23254706     0.78900
O115        O  0.02246908  0.22193465  0.21029719    -0.70200
O116        O  0.03344517  0.25153442  0.31143011    -0.70500
O117        O  0.01295619  0.19030755  0.27174504    -0.70300
O118        O  0.04284830  0.28285126  0.25047210    -0.70300
O119        O  0.49496255  0.30457880  0.23520789    -0.70300
O120        O  0.46370753  0.21563310  0.26276021    -0.70300
O121        O  0.48592267  0.27710427  0.29870888    -0.70200
O122        O  0.47252462  0.24289040  0.19897087    -0.70400
V123        V  0.02705607  0.23696289  0.26071224     1.35200
V124        V  0.48014329  0.25964963  0.24904633     1.35200
C125        C  0.49460787  0.22889983  0.18707808     0.79000
C126        C  0.01258554  0.27004913  0.32162474     0.79100
C127        C  0.48128202  0.18807820  0.26993401     0.78900
C128        C  0.02388790  0.30816440  0.23795904     0.78900
C129        C  0.29444864  0.03857063  0.17329673     0.88000
C130        C  0.27674077  0.01506390  0.19519675    -0.52200
C131        C  0.28248054  0.02369661  0.23223859     0.10900
C132        C  0.30598008  0.05507972  0.24393613     0.21900
C133        C  0.28603442  0.07803963  0.18158029    -0.52900
C134        C  0.29223185  0.08672699  0.21857246     0.11100
C135        C  0.32920042  0.03448498  0.19386337    -0.52500
C136        C  0.33514164  0.04328281  0.23100349     0.11600
H137        H  0.26441180  0.48671629  0.17908033     0.16100
H138        H  0.31071741  0.06235452  0.27396567     0.01900
H139        H  0.27652365  0.09754646  0.16004371     0.16400
H140        H  0.34737301  0.02544201  0.18076964     0.16200
C141        C  0.46529202  0.04254345  0.33126067     0.88000
C142        C  0.48273238  0.01651168  0.31025775    -0.52200
C143        C  0.47700056  0.02294471  0.27296870     0.10900
C144        C  0.45414241  0.05450485  0.26028472     0.21900
C145        C  0.47430013  0.08095905  0.32169169    -0.52900
C146        C  0.46856382  0.08714545  0.28457825     0.11100
C147        C  0.43063453  0.03874295  0.31118630    -0.52500
C148        C  0.42472566  0.04498613  0.27369187     0.11600
H149        H  0.49417959  0.48289503  0.32154635     0.16100
H150        H  0.44955646  0.05989248  0.23005647     0.01900
H151        H  0.48509855  0.10124615  0.34240864     0.16400
H152        H  0.41286705  0.03151277  0.32553093     0.16200
C153        C  0.36633283  0.04242184  0.25758652    -0.14900
C154        C  0.39350017  0.04336995  0.24714589    -0.30100
H155        H  0.36649997  0.04330229  0.28685373     0.14100
H156        H  0.39318006  0.04489239  0.21788624     0.14700
C157        C  0.47776364  0.12126427  0.26956920    -0.14900
C158        C  0.46928246  0.15379411  0.28094534    -0.30100
H159        H  0.49161948  0.11955224  0.24902499     0.14100
H160        H  0.45310460  0.15526962  0.29888169     0.14700
C161        C  0.26164012  0.14298421  0.21933651    -0.14900
C162        C  0.28757803  0.12363244  0.23309220    -0.30100
H163        H  0.24277301  0.13075764  0.19843541     0.14100
H164        H  0.30518456  0.13432678  0.25646099     0.14700
C165        C  0.23575722  0.48114710  0.24040440    -0.14900
C166        C  0.26737969  0.00584743  0.25922227    -0.30100
H167        H  0.22746696  0.47678970  0.21071136     0.14100
H168        H  0.27645772  0.01281315  0.28828065     0.14700
C169        C  0.20857824  0.36711970  0.26572434    -0.14900
C170        C  0.23426487  0.34856527  0.28227111    -0.30100
H171        H  0.19204999  0.35534991  0.24192786     0.14100
H172        H  0.25227667  0.36174438  0.30357204     0.14700
C173        C  0.00989143  0.48155266  0.25039094    -0.14900
C174        C  0.49111156  0.00261139  0.24610532    -0.30100
H175        H  0.02019181  0.47261381  0.27836493     0.14100
H176        H  0.47970718  0.00567368  0.21702958     0.14700
C177        C  0.01679694  0.36670044  0.20621339    -0.14900
C178        C  0.03527694  0.34404072  0.22971554    -0.30100
H179        H  0.99372770  0.35776299  0.19120172     0.14100
H180        H  0.05927103  0.35160929  0.24232561     0.14700
C181        C  0.13139764  0.44979281  0.23129760    -0.14900
C182        C  0.10405181  0.44366192  0.24019127    -0.30100
H183        H  0.13214205  0.45279165  0.20249269     0.14100
H184        H  0.10423217  0.43797825  0.26887230     0.14700
C185        C  0.01675428  0.28330890  0.36022260    -0.14900
C186        C  0.04430631  0.28160512  0.38516813    -0.30100
H187        H  0.99653436  0.29428543  0.36861305     0.14100
H188        H  0.06466734  0.27130228  0.37658360     0.14700
C189        C  0.23779688  0.27756728  0.14692774    -0.14900
C190        C  0.20955987  0.27780784  0.12318775    -0.30100
H191        H  0.25828058  0.28545585  0.13752439     0.14100
H192        H  0.18921749  0.26981158  0.13284376     0.14700
C193        C  0.11452561  0.29580353  0.51415784    -0.14900
C194        C  0.13526548  0.29063622  0.99697987    -0.30100
H195        H  0.11356030  0.29522378  0.54306959     0.14100
H196        H  0.13575542  0.29157366  0.96792362     0.14700
C197        C  0.03626413  0.40749484  0.47050024    -0.14900
C198        C  0.02995960  0.37472213  0.48255883    -0.30100
H199        H  0.05153663  0.40948788  0.45160133     0.14100
H200        H  0.01724888  0.37310451  0.50419095     0.14700
C201        C  0.47343899  0.03664557  0.37277276    -0.14900
C202        C  0.46610868  0.00635332  0.38876077    -0.30100
H203        H  0.48716198  0.05757903  0.39041199     0.14100
H204        H  0.45108832  0.98580346  0.37221359     0.14700
C205        C  0.01958311  0.46597890  0.11847541    -0.14900
C206        C  0.03708072  0.47536595  0.09504301    -0.30100
H207        H  0.99439340  0.46499475  0.10802684     0.14100
H208        H  0.06223577  0.47701955  0.10417691     0.14700
C209        C  0.24182815  0.38881469  0.03701700    -0.14900
C210        C  0.21435504  0.37162184  0.02611563    -0.30100
H211        H  0.18983023  0.38435624  0.50031730     0.14100
H212        H  0.19561138  0.38364968  0.00522973     0.14700
C213        C  0.30308203  0.01516612  0.11130917    -0.14900
C214        C  0.28452150  0.02925250  0.13200916    -0.30100
H215        H  0.24759381  0.53253122  0.11987836     0.14100
H216        H  0.25996111  0.03328082  0.11896070     0.14700
C217        C  0.20295869  0.46504484  0.36072173    -0.14900
C218        C  0.23081850  0.46087698  0.38491067    -0.30100
H219        H  0.18336280  0.47637075  0.37017207     0.14100
H220        H  0.25008100  0.44881202  0.37532178     0.14700
C221        C  0.49024341  0.21762437  0.14779621    -0.14900
C222        C  0.46211585  0.21846898  0.12383894    -0.30100
H223        H  0.51044982  0.20826028  0.13830599     0.14100
H224        H  0.44191506  0.22733718  0.13363500     0.14700
C225        C  0.01196839  0.26002903  0.50534195    -0.14900
C226        C  0.48439550  0.23932037  0.99725686    -0.30100
H227        H  0.01861200  0.25957980  0.03416586     0.14100
H228        H  0.47864464  0.22482085  0.46839063     0.14700
C229        C  0.47332466  0.12333719  0.02709891    -0.14900
C230        C  0.46807056  0.09154633  0.04186119    -0.30100
H231        H  0.48320659  0.12345847  0.00294391     0.14100
H232        H  0.45532783  0.09126399  0.06355842     0.14700
C233        C  0.25837005  0.21524229  0.35802180    -0.14900
C234        C  0.28635324  0.21475030  0.38226443    -0.30100
H235        H  0.23772642  0.20688202  0.36681910     0.14100
H236        H  0.30696538  0.22289864  0.37326318     0.14700
C237        C  0.23471353  0.25340109  0.99860088    -0.14900
C238        C  0.26255060  0.22978403  0.50934206    -0.30100
H239        H  0.22542768  0.25928723  0.96955040     0.14100
H240        H  0.26893350  0.22544505  0.03816134     0.14700
C241        C  0.26859947  0.11550960  0.46599555    -0.14900
C242        C  0.28467462  0.09091551  0.48935963    -0.30100
H243        H  0.24565628  0.10841473  0.44904343     0.14100
H244        H  0.30871915  0.09655231  0.50371276     0.14700
C245        C  0.36001663  0.18793590  0.50608446    -0.14900
C246        C  0.38712969  0.19771091  0.99865327    -0.30100
H247        H  0.35999995  0.18437278  0.53505203     0.14100
H248        H  0.38707400  0.19509793  0.96948522     0.14700
C249        C  0.28909909  0.19668616  0.92446032     0.88000
C250        C  0.32321335  0.20247524  0.94543223    -0.52200
C251        C  0.32890895  0.19476689  0.98249283     0.10900
C252        C  0.29967207  0.18242586  0.99486035     0.21900
C253        C  0.28193915  0.15706076  0.93237509    -0.52900
C254        C  0.28732385  0.14969416  0.96933019     0.11100
C255        C  0.27011695  0.22036689  0.94560494    -0.52500
C256        C  0.27539708  0.21277560  0.98253223     0.11600
H257        H  0.34091956  0.21203472  0.93202029     0.16100
H258        H  0.30131662  0.16851964  0.51783375     0.01900
H259        H  0.27286484  0.13691400  0.91074967     0.16400
H260        H  0.25415046  0.24126718  0.93200983     0.16200
C261        C  0.45831672  0.19318889  0.58077126     0.88000
C262        C  0.42397819  0.19724910  0.55985550    -0.52200
C263        C  0.41865838  0.18981667  0.52256184     0.10900
C264        C  0.44854435  0.17981535  0.50979975     0.21900
C265        C  0.46723699  0.15419103  0.57123111    -0.52900
C266        C  0.46243563  0.14743183  0.53397767     0.11100
C267        C  0.47645348  0.21840723  0.56062880    -0.52500
C268        C  0.47167052  0.21119314  0.52338968     0.11600
H269        H  0.40573761  0.20513703  0.57351206     0.16100
H270        H  0.44455728  0.18053615  0.98404704     0.01900
H271        H  0.47770518  0.13435819  0.59201254     0.16400
H272        H  0.49187200  0.23966543  0.57509116     0.16200
O273        O  0.20728118  0.45412224  0.49533822    -0.70200
O274        O  0.25793524  0.04078965  0.99159858    -0.70500
O275        O  0.22353500  0.47966712  0.94905507    -0.70300
O276        O  0.22875525  0.01687523  0.54705360    -0.70300
O277        O  0.27805363  0.49277183  0.54851714    -0.70300
O278        O  0.27312709  0.46867166  0.95781187    -0.70300
O279        O  0.30303776  0.02104571  0.98567086    -0.70200
O280        O  0.25449971  0.43253035  0.51032812    -0.70400
V281        V  0.22694724  0.00299886  0.49688770     1.35200
V282        V  0.26909577  0.47795011  0.49753393     1.35200
C283        C  0.22555526  0.42771243  0.50630694     0.79000
C284        C  0.28360784  0.04683878  0.98332817     0.79100
C285        C  0.24625050  0.46936535  0.93606554     0.78900
C286        C  0.25353948  0.01125182  0.57162705     0.78900
O287        O  0.50389337  0.46552623  0.56136018    -0.70200
O288        O  0.43915954  0.49374354  0.94087557    -0.70500
O289        O  0.46042371  0.43509016  0.98148749    -0.70300
O290        O  0.46335500  0.01778080  0.51089154    -0.70300
O291        O  0.03772336  0.06561277  0.52260878    -0.70300
O292        O  0.02994939  0.46164874  0.96665142    -0.70300
O293        O  0.03095766  0.02702575  0.95312243    -0.70200
O294        O  0.04275409  0.50564100  0.55358960    -0.70400
V295        V  0.48317090  0.47671336  0.51193225     1.35200
V296        V  0.04780115  0.01863468  0.50620701     1.35200
C297        C  0.02886049  0.48649927  0.57272246     0.79000
C298        C  0.46548285  0.00969151  0.93841540     0.79100
C299        C  0.01555907  0.43250955  0.96938696     0.78900
C300        C  0.47878672  0.04712503  0.51549949     0.78900
C301        C  0.21268208  0.28513959  0.58960759     0.88000
C302        C  0.22912154  0.26105100  0.56583315    -0.52200
C303        C  0.22466120  0.27203106  0.52983804     0.10900
C304        C  0.20349228  0.30595468  0.52098375     0.21900
C305        C  0.22428154  0.32384465  0.58549021    -0.52900
C306        C  0.21928271  0.33490919  0.54969689     0.11100
C307        C  0.17799833  0.28511488  0.56827660    -0.52500
C308        C  0.17321308  0.29608454  0.53224521     0.11600
H309        H  0.24324698  0.23771467  0.57710836     0.16100
H310        H  0.19203270  0.31043483  0.98330189     0.01900
H311        H  0.23588606  0.34089463  0.60891948     0.16400
H312        H  0.15902095  0.27639320  0.57985170     0.16200
C313        C  0.03908060  0.28037788  0.91997717     0.88000
C314        C  0.02046771  0.25729991  0.94155209    -0.52200
C315        C  0.02439426  0.26805739  0.97794821     0.10900
C316        C  0.04661886  0.30058268  0.98911154     0.21900
C317        C  0.02923385  0.32008589  0.92510278    -0.52900
C318        C  0.03285522  0.33045559  0.96142891     0.11100
C319        C  0.07301483  0.27815059  0.94261430    -0.52500
C320        C  0.07712090  0.28904209  0.97890042     0.11600
H321        H  0.00586647  0.23458669  0.92892753     0.16100
H322        H  0.05567722  0.31554347  0.52508244     0.01900
H323        H  0.01924801  0.33783679  0.90211232     0.16400
H324        H  0.09186304  0.26851387  0.93078096     0.16200
C325        C  0.04138940  0.44619266  0.67056984     0.88000
C326        C  0.07584938  0.45010455  0.69094772    -0.52200
C327        C  0.08132537  0.44548215  0.72858555     0.10900
C328        C  0.05145369  0.43722130  0.74192588     0.21900
C329        C  0.03184843  0.40848261  0.68145843    -0.52900
C330        C  0.03694937  0.40380877  0.71880598     0.11100
C331        C  0.02371874  0.47346280  0.68997849    -0.52500
C332        C  0.02862031  0.46848715  0.72742454     0.11600
H333        H  0.09387693  0.45622853  0.67660707     0.16100
H334        H  0.05559728  0.43313018  0.77233612     0.01900
H335        H  0.02093906  0.38770141  0.66139009     0.16400
H336        H  0.00828213  0.49415760  0.67494131     0.16200
C337        C  0.20983493  0.45228641  0.83066692     0.88000
C338        C  0.17615061  0.45820555  0.80811937    -0.52200
C339        C  0.17104032  0.44755181  0.77163355     0.10900
C340        C  0.20059418  0.43283759  0.76105245     0.21900
C341        C  0.21629966  0.41167818  0.82467257    -0.52900
C342        C  0.21167254  0.40157065  0.78818199     0.11100
C343        C  0.23025513  0.47313299  0.80943219    -0.52500
C344        C  0.22547680  0.46291286  0.77273075     0.11600
H345        H  0.15804009  0.46942198  0.82031685     0.16100
H346        H  0.19660575  0.42417219  0.73144250     0.03500
H347        H  0.22435969  0.39281529  0.84726471     0.16400
H348        H  0.24675025  0.49394704  0.82259790     0.16200
O349        O  0.19076126  0.24322555  0.70601671    -0.70200
O350        O  0.21680884  0.20802756  0.80425658    -0.70500
O351        O  0.19564374  0.27219337  0.77441356    -0.70300
O352        O  0.21213639  0.17916230  0.73587658    -0.70300
O353        O  0.26083439  0.19430200  0.74379926    -0.70300
O354        O  0.24145447  0.29056371  0.77049378    -0.70300
O355        O  0.26324103  0.22965599  0.80819673    -0.70200
O356        O  0.23901697  0.25481534  0.70626042    -0.70400
V357        V  0.20469515  0.22595168  0.75519835     1.35200
V358        V  0.25027616  0.24205747  0.75718691     1.35200
C359        C  0.21059129  0.25392537  0.68899431     0.79000
C360        C  0.24423978  0.21361285  0.82324935     0.79100
C361        C  0.21546988  0.29755924  0.77779006     0.78900
C362        C  0.23956745  0.17066885  0.73418241     0.78900
O363        O  0.01335632  0.21669902  0.70243420    -0.70200
O364        O  0.02576283  0.24585607  0.80371143    -0.70500
O365        O  0.00209170  0.18652423  0.76350745    -0.70300
O366        O  0.03699053  0.27559747  0.74206921    -0.70300
O367        O  0.50735612  0.28583261  0.73797945    -0.70300
O368        O  0.48256145  0.19210834  0.76279091    -0.70300
O369        O  0.50684015  0.25234524  0.80141553    -0.70200
O370        O  0.48294131  0.22559421  0.69888408    -0.70400
V371        V  0.01868331  0.23163739  0.75280848     1.35200
V372        V  0.49574257  0.23856245  0.75027326     1.35200
C373        C  0.50173957  0.20844043  0.68378379     0.79000
C374        C  0.00383643  0.26052690  0.81541742     0.79100
C375        C  0.50265181  0.16712052  0.77218023     0.78900
C376        C  0.02036025  0.30390396  0.73496332     0.78900
C377        C  0.28749367  0.03362166  0.67575468     0.88000
C378        C  0.26913708  0.01008457  0.69689055    -0.52200
C379        C  0.27327837  0.02003015  0.73352459     0.10900
C380        C  0.29583002  0.05231719  0.74541348     0.21900
C381        C  0.27761874  0.07308612  0.68178839    -0.52900
C382        C  0.28203392  0.08277868  0.71838732     0.11100
C383        C  0.32151892  0.03087747  0.69809877    -0.52500
C384        C  0.32606089  0.04075454  0.73473367     0.11600
H385        H  0.26231836  0.48211732  0.67776751     0.16100
H386        H  0.29927470  0.06051857  0.77509079     0.01900
H387        H  0.26836478  0.09170850  0.65931233     0.16400
H388        H  0.34001298  0.02118031  0.68572555     0.16200
C389        C  0.45690971  0.03560778  0.83480483     0.88000
C390        C  0.47366687  0.01083730  0.81190701    -0.52200
C391        C  0.46719453  0.01881548  0.77496166     0.10900
C392        C  0.44398918  0.05047009  0.76433729     0.21900
C393        C  0.46563224  0.07451640  0.82643796    -0.52900
C394        C  0.45877565  0.08225598  0.78955186     0.11100
C395        C  0.42185779  0.03197484  0.81550459    -0.52500
C396        C  0.41527372  0.03987918  0.77836710     0.11600
H397        H  0.49583625  0.48978088  0.81814454     0.16100
H398        H  0.43871871  0.05709519  0.73433711     0.01900
H399        H  0.47651213  0.09414544  0.84780672     0.16400
H400        H  0.40411322  0.02363502  0.82936672     0.16200
C401        C  0.35679061  0.04022121  0.76230064    -0.14900
C402        C  0.38407738  0.03856812  0.75217456    -0.30100
H403        H  0.35674389  0.04293713  0.79144613     0.14100
H404        H  0.38412235  0.03854425  0.72299167     0.14700
C405        C  0.46591886  0.11759622  0.77503886    -0.14900
C406        C  0.49454241  0.13198212  0.78585312    -0.30100
H407        H  0.44819214  0.13060231  0.75366118     0.14100
H408        H  0.51291990  0.11688415  0.80448918     0.14700
C409        C  0.24645391  0.13418684  0.72084126    -0.14900
C410        C  0.27504995  0.11946447  0.73125879    -0.30100
H411        H  0.22757713  0.11861301  0.70320000     0.14100
H412        H  0.29323079  0.13344777  0.75162234     0.14700
C413        C  0.24193003  0.47807278  0.74532259    -0.14900
C414        C  0.25805763  0.00225961  0.76027460    -0.30100
H415        H  0.23360989  0.46837470  0.71697120     0.14100
H416        H  0.26700449  0.00953390  0.78926754     0.14700
C417        C  0.21786521  0.36435257  0.77563038    -0.14900
C418        C  0.20851393  0.33435564  0.79023776    -0.30100
H419        H  0.22907916  0.36169189  0.75265492     0.14100
H420        H  0.19444856  0.33692658  0.81050187     0.14700
C421        C  0.01218412  0.48864552  0.75228580    -0.14900
C422        C  0.48163875  0.00064936  0.74705726    -0.30100
H423        H  0.02226940  0.48673559  0.78184764     0.14100
H424        H  0.47071274  0.00585153  0.71821878     0.14700
C425        C  0.02635617  0.37086104  0.73473455    -0.14900
C426        C  0.03389432  0.33749324  0.72437126    -0.30100
H427        H  0.01196598  0.37411848  0.75457314     0.14100
H428        H  0.05049033  0.33467282  0.70707459     0.14700
C429        C  0.13997069  0.44778078  0.74465159    -0.14900
C430        C  0.11262786  0.44759587  0.75503439    -0.30100
H431        H  0.14003628  0.44555139  0.71550204     0.14100
H432        H  0.11284437  0.44723593  0.78431840     0.14700
C433        C  0.00755267  0.27057312  0.85495330    -0.14900
C434        C  0.03517104  0.26865932  0.87981567    -0.30100
H435        H  0.98724476  0.28068764  0.86376178     0.14100
H436        H  0.05557209  0.25914445  0.87080776     0.14700
C437        C  0.20039752  0.26476360  0.64984316    -0.14900
C438        C  0.22093098  0.27377699  0.62992633    -0.30100
H439        H  0.17553935  0.26486795  0.63773869     0.14100
H440        H  0.24569036  0.27340340  0.64339518     0.14700
C441        C  0.10767381  0.28997884  0.00653680    -0.14900
C442        C  0.14235485  0.29740050  0.50506448    -0.30100
H443        H  0.10702723  0.29193206  0.03553608     0.14100
H444        H  0.14298544  0.30087976  0.47628479     0.14700
C445        C  0.02674767  0.39738799  0.95761273    -0.14900
C446        C  0.02215092  0.36592408  0.97345680    -0.30100
H447        H  0.04002862  0.39752834  0.93645202     0.14100
H448        H  0.01151012  0.36621413  0.99701049     0.14700
C449        C  0.46808611  0.02787569  0.87585193    -0.14900
C450        C  0.45058156  0.01756696  0.89907701    -0.30100
H451        H  0.49307739  0.03091307  0.88684241     0.14100
H452        H  0.42561398  0.01408044  0.88944744     0.14700
C453        C  0.03394495  0.45068464  0.62896760    -0.14900
C454        C  0.04259839  0.47986476  0.61239743    -0.30100
H455        H  0.01922325  0.43016051  0.61186893     0.14100
H456        H  0.05849450  0.49991379  0.62849140     0.14700
C457        C  0.21348226  0.39210885  0.51436080    -0.14900
C458        C  0.23067711  0.37045158  0.54026571    -0.30100
H459        H  0.26141716  0.37526545  0.05532455     0.14100
H460        H  0.25310121  0.37998755  0.55670172     0.14700
C461        C  0.25611288  0.02283583  0.61054680    -0.14900
C462        C  0.28368552  0.02227999  0.63559755    -0.30100
H463        H  0.24083838  0.52570822  0.61081451     0.14100
H464        H  0.30432488  0.01325765  0.62683541     0.14700
C465        C  0.21456322  0.46326522  0.87129703    -0.14900
C466        C  0.24192016  0.45884342  0.89637169    -0.30100
H467        H  0.19483161  0.47465848  0.88043486     0.14100
H468        H  0.26179765  0.44776651  0.88732850     0.14700
C469        C  0.49350153  0.19783707  0.64408344    -0.14900
C470        C  0.46465763  0.20143559  0.62205888    -0.30100
H471        H  0.51212545  0.18742065  0.63219356     0.14100
H472        H  0.44571752  0.21119772  0.63373989     0.14700
C473        C  0.00932305  0.25135553  0.00551161    -0.14900
C474        C  0.48803765  0.22959862  0.49783486    -0.30100
H475        H  0.02011431  0.26568448  0.53481836     0.14100
H476        H  0.47443999  0.23183856  0.96853778     0.14700
C477        C  0.47306744  0.11373356  0.51839188    -0.14900
C478        C  0.46568887  0.08056433  0.52832155    -0.30100
H479        H  0.48680476  0.11640370  0.49788950     0.14100
H480        H  0.44965282  0.07793407  0.54623717     0.14700
C481        C  0.25308328  0.20209568  0.86220216    -0.14900
C482        C  0.28216541  0.20547912  0.88365662    -0.30100
H483        H  0.23478616  0.19135850  0.87410629     0.14100
H484        H  0.30072525  0.21585630  0.87202078     0.14700
C485        C  0.23926189  0.25465588  0.50149973    -0.14900
C486        C  0.25958260  0.23111319  0.00905272    -0.30100
H487        H  0.23051239  0.26356466  0.47320217     0.14100
H488        H  0.27124134  0.22069144  0.53758598     0.14700
C489        C  0.28093448  0.11384238  0.98353813    -0.14900
C490        C  0.29063453  0.08277202  0.97031276    -0.30100
H491        H  0.26931217  0.11314876  0.00624212     0.14100
H492        H  0.30499192  0.08382578  0.95029202     0.14700
C493        C  0.35990576  0.19745063  0.00911750    -0.14900
C494        C  0.38744382  0.19035075  0.49603126    -0.30100
H495        H  0.35997578  0.19725705  0.03834988     0.14100
H496        H  0.38758166  0.19111799  0.46689081     0.14700
C497        C  0.29085806  0.69928992  0.42904933     0.88000
C498        C  0.32568000  0.70295578  0.44896410    -0.52200
C499        C  0.33198881  0.69432660  0.48595547     0.10900
C500        C  0.30275159  0.68312789  0.49917397     0.21900
C501        C  0.28230660  0.66005435  0.43642286    -0.52900
C502        C  0.28818778  0.65156611  0.47309594     0.11100
C503        C  0.27359550  0.72341578  0.45191929    -0.52500
C504        C  0.27964590  0.71497559  0.48871874     0.11600
H505        H  0.34346387  0.71167832  0.43537287     0.16100
H506        H  0.31345970  0.67284758  0.03168176     0.01900
H507        H  0.27099273  0.64122136  0.41445838     0.16400
H508        H  0.25774204  0.74489102  0.43940622     0.16200
C509        C  0.46651740  0.70574816  0.08931428     0.88000
C510        C  0.43245627  0.70887120  0.06761733    -0.52200
C511        C  0.42737171  0.69772540  0.03138202     0.10900
C512        C  0.45720986  0.68526944  0.02010213     0.21900
C513        C  0.47560124  0.66586341  0.08404472    -0.52900
C514        C  0.47058368  0.65510903  0.04780859     0.11100
C515        C  0.48501586  0.72811415  0.06735444    -0.52500
C516        C  0.48038011  0.71743040  0.03085402     0.11600
H517        H  0.41415227  0.71899392  0.08012323     0.16100
H518        H  0.44725047  0.67674611  0.48637321     0.01900
H519        H  0.48481496  0.64764214  0.10689232     0.16400
H520        H  0.50038296  0.75006677  0.08018706     0.16200
O521        O  0.23822536  0.94536852  0.01753895    -0.70200
O522        O  0.24023211  0.54743887  0.48113112    -0.70500
O523        O  0.22314065  0.98985615  0.44629930    -0.70300
O524        O  0.23654057  0.51178956  0.04982044    -0.70300
O525        O  0.30967255  0.99215295  0.05344924    -0.70300
O526        O  0.27016090  0.96777318  0.46145215    -0.70300
O527        O  0.28559913  0.52237972  0.48489750    -0.70200
O528        O  0.28634192  0.92888652  0.02200249    -0.70400
V529        V  0.23092736  0.49534517  0.99959990     1.35200
V530        V  0.29381446  0.97529711  0.00384170     1.35200
C531        C  0.25925274  0.92121153  0.02513202     0.79000
C532        C  0.26840695  0.55035008  0.47934304     0.79100
C533        C  0.24547855  0.97375795  0.43678198     0.78900
C534        C  0.26355357  0.51190771  0.07130439     0.78900
O535        O  0.49170302  0.96790530  0.05747646    -0.70200
O536        O  0.46470802  0.98078669  0.44728057    -0.70500
O537        O  0.50016224  0.92914496  0.48809796    -0.70300
O538        O  0.44133556  0.53365888  0.00245601    -0.70300
O539        O  0.00387246  0.55150209  0.00198035    -0.70300
O540        O  0.05949892  0.97232852  0.48998088    -0.70300
O541        O  0.00444890  0.52408514  0.45214392    -0.70200
O542        O  0.06267242  0.99723741  0.05222094    -0.70400
V543        V  0.47130425  0.98343562  0.00885288     1.35200
V544        V  0.01614103  0.50614796  0.98441797     1.35200
C545        C  0.04451153  0.98503872  0.07071782     0.79000
C546        C  0.47486779  0.50261794  0.44110203     0.79100
C547        C  0.04062259  0.94601492  0.48677360     0.78900
C548        C  0.46237413  0.55782443  0.00809270     0.78900
C549        C  0.21616253  0.79078791  0.09118126     0.88000
C550        C  0.23334357  0.76378573  0.07085724    -0.52200
C551        C  0.22735324  0.76899265  0.03333477     0.10900
C552        C  0.20428302  0.80033477  0.01980005     0.21900
C553        C  0.22527500  0.82858073  0.08010406    -0.52900
C554        C  0.21895324  0.83364348  0.04278728     0.11100
C555        C  0.18129479  0.78672688  0.07161053    -0.52500
C556        C  0.17513149  0.79156129  0.03388355     0.11600
H557        H  0.24913569  0.74309050  0.08528533     0.16100
H558        H  0.20244285  0.81845647  0.49934892     0.01900
H559        H  0.23552147  0.84977004  0.10004980     0.16400
H560        H  0.16357400  0.78029320  0.08632067     0.16200
C561        C  0.04983783  0.79267641  0.43324750     0.88000
C562        C  0.02916372  0.77086867  0.45295934    -0.52200
C563        C  0.03222954  0.78093630  0.48934189     0.10900
C564        C  0.05613894  0.81167841  0.50245114     0.21900
C565        C  0.04199408  0.83293535  0.43872473    -0.52900
C566        C  0.04509769  0.84271443  0.47509625     0.11100
C567        C  0.08300457  0.78777143  0.45693693    -0.52500
C568        C  0.08658031  0.79821683  0.49319322     0.11600
H569        H  0.01387572  0.74930893  0.43896156     0.16100
H570        H  0.05991448  0.81293674  0.02937780     0.01900
H571        H  0.03415806  0.85171066  0.41601311     0.16400
H572        H  0.10187489  0.77700967  0.44576471     0.16200
C573        C  0.04643528  0.95180036  0.16988980     0.88000
C574        C  0.08112027  0.95230960  0.19089713    -0.52200
C575        C  0.08615393  0.94062930  0.22679256     0.10900
C576        C  0.05611023  0.92950664  0.23801541     0.21900
C577        C  0.03550461  0.91276190  0.17313337    -0.52900
C578        C  0.04070104  0.90093330  0.20858162     0.11100
C579        C  0.02990163  0.97481843  0.19416786    -0.52500
C580        C  0.03446869  0.96305546  0.22988520     0.11600
H581        H  0.09976206  0.96194322  0.17920630     0.16100
H582        H  0.05993482  0.91986476  0.26700659     0.01900
H583        H  0.02395641  0.89608513  0.14937313     0.16400
H584        H  0.01586596  0.99837265  0.18339444     0.16200
C585        C  0.21218733  0.95070533  0.33247001     0.88000
C586        C  0.17846330  0.95298870  0.30916869    -0.52200
C587        C  0.17493820  0.94280324  0.27276549     0.10900
C588        C  0.20581027  0.93186118  0.26312132     0.21900
C589        C  0.22232429  0.91118057  0.32690759    -0.52900
C590        C  0.21923009  0.90151140  0.29045160     0.11100
C591        C  0.23107089  0.97442177  0.31193371    -0.52500
C592        C  0.22782852  0.96443974  0.27550144     0.11600
H593        H  0.15930207  0.96230588  0.32061835     0.16100
H594        H  0.20313385  0.92363250  0.23355557     0.03500
H595        H  0.23209039  0.89306861  0.34966094     0.16400
H596        H  0.24526784  0.99716145  0.32526155     0.16200
O597        O  0.21741536  0.73385361  0.21002803    -0.70200
O598        O  0.25514458  0.71772299  0.31183625    -0.70500
O599        O  0.21967546  0.77076751  0.27470452    -0.70300
O600        O  0.25304648  0.68120649  0.24798379    -0.70300
O601        O  0.29340807  0.71008383  0.23901078    -0.70300
O602        O  0.26220705  0.79856564  0.27117769    -0.70300
O603        O  0.29780250  0.74340049  0.30573642    -0.70200
O604        O  0.25798542  0.76505396  0.20541129    -0.70400
V605        V  0.23709590  0.72649208  0.26101380     1.35200
V606        V  0.27708987  0.75372839  0.25551984     1.35200
C607        C  0.23131251  0.75224913  0.19036736     0.79000
C608        C  0.28292555  0.72742963  0.32612376     0.79100
C609        C  0.23550907  0.79980316  0.27803554     0.78900
C610        C  0.27852601  0.68059304  0.23805289     0.78900
O611        O  0.03118825  0.72110197  0.22163352    -0.70200
O612        O  0.03726212  0.75070473  0.32148664    -0.70500
O613        O  0.01692045  0.69043480  0.28077949    -0.70300
O614        O  0.05132175  0.78141159  0.26287165    -0.70300
O615        O  0.50463100  0.79711762  0.24934114    -0.70300
O616        O  0.46781579  0.70638847  0.26140857    -0.70300
O617        O  0.49124808  0.76281082  0.30683603    -0.70200
O618        O  0.48159198  0.74082021  0.20443970    -0.70400
V619        V  0.03332750  0.73626718  0.27138389     1.35200
V620        V  0.48722669  0.75130262  0.25581383     1.35200
C621        C  0.50238909  0.72315876  0.19328715     0.79000
C622        C  0.01631083  0.77039337  0.32995742     0.79100
C623        C  0.48449389  0.67845517  0.27077153     0.78900
C624        C  0.03350031  0.80725121  0.24892972     0.78900
C625        C  0.29941807  0.53247926  0.17591669     0.88000
C626        C  0.27937150  0.50804149  0.19423053    -0.52200
C627        C  0.28169131  0.51613866  0.23086110     0.10900
C628        C  0.30459332  0.54729545  0.24605305     0.21900
C629        C  0.29002471  0.57182562  0.18362357    -0.52900
C630        C  0.29257116  0.57936185  0.22046944     0.11100
C631        C  0.33282744  0.52841782  0.19999331    -0.52500
C632        C  0.33572053  0.53656872  0.23687601     0.11600
H633        H  0.26101879  0.99361036  0.18185069     0.16100
H634        H  0.30666802  0.55386174  0.27590322     0.01900
H635        H  0.28114996  0.59138208  0.16192706     0.16400
H636        H  0.35232889  0.52001784  0.18868037     0.16200
C637        C  0.46590737  0.53025683  0.33870709     0.88000
C638        C  0.48030907  0.50700641  0.31233776    -0.52200
C639        C  0.47436206  0.51977375  0.27687444     0.10900
C640        C  0.45398235  0.55434107  0.27112824     0.21900
C641        C  0.47786707  0.56885593  0.33561874    -0.52900
C642        C  0.47177930  0.58153771  0.30052090     0.11100
C643        C  0.43068465  0.53145174  0.31983358    -0.52500
C644        C  0.42447488  0.54377149  0.28395499     0.11600
H645        H  0.49810741  0.99511678  0.32399516     0.16100
H646        H  0.44928980  0.56480906  0.24236510     0.01900
H647        H  0.49149799  0.58430184  0.35917987     0.16400
H648        H  0.41273022  0.52196957  0.33279983     0.16200
C649        C  0.36590723  0.53677546  0.26555254    -0.14900
C650        C  0.39333047  0.54385576  0.25709796    -0.30100
H651        H  0.36503540  0.53280135  0.29417757     0.14100
H652        H  0.39330172  0.55025998  0.22863652     0.14700
C653        C  0.48645502  0.61543672  0.29237660    -0.14900
C654        C  0.46971683  0.64331234  0.27511111    -0.30100
H655        H  0.51127978  0.61880867  0.30435554     0.14100
H656        H  0.44453522  0.64084640  0.26565435     0.14700
C657        C  0.29027335  0.64654086  0.22461722    -0.14900
C658        C  0.28199620  0.61380407  0.23467876    -0.30100
H659        H  0.30631996  0.64832870  0.20660844     0.14100
H660        H  0.26822231  0.61200242  0.25524624     0.14700
C661        C  0.24327509  0.98242905  0.24907341    -0.14900
C662        C  0.26275662  0.49914150  0.25418553    -0.30100
H663        H  0.23423639  0.97524872  0.22010460     0.14100
H664        H  0.27110773  0.50325748  0.28388158     0.14700
C665        C  0.23052608  0.86653599  0.27809302    -0.14900
C666        C  0.22327965  0.83418838  0.29022602    -0.30100
H667        H  0.24393054  0.86748141  0.25710087     0.14100
H668        H  0.20737326  0.83293715  0.30842670     0.14700
C669        C  0.01963603  0.98008420  0.25815823    -0.14900
C670        C  0.48683208  0.50359143  0.24642982    -0.30100
H671        H  0.02933680  0.97342993  0.28696958     0.14100
H672        H  0.47663308  0.51329551  0.21873520     0.14700
C673        C  0.02912756  0.86522789  0.21679019    -0.14900
C674        C  0.04630373  0.84254128  0.24146767    -0.30100
H675        H  0.00640447  0.85658066  0.20041608     0.14100
H676        H  0.07007248  0.84967488  0.25564077     0.14700
C677        C  0.14458492  0.94244705  0.24468220    -0.14900
C678        C  0.11694739  0.94016012  0.25398064    -0.30100
H679        H  0.14539825  0.94274428  0.21570018     0.14100
H680        H  0.11649948  0.93689246  0.28285815     0.14700
C681        C  0.01944385  0.78380101  0.36813025    -0.14900
C682        C  0.04657624  0.78104673  0.39351761    -0.30100
H683        H  0.99929226  0.79607231  0.37564314     0.14100
H684        H  0.06682132  0.76955158  0.38553644     0.14700
C685        C  0.21733994  0.75752194  0.15042803    -0.14900
C686        C  0.22483199  0.78665156  0.13292163    -0.30100
H687        H  0.20167224  0.73687111  0.13507406     0.14100
H688        H  0.23927365  0.80775783  0.14942225     0.14700
C689        C  0.11690275  0.79782487  0.52094320    -0.14900
C690        C  0.14400327  0.78906953  0.00728446    -0.30100
H691        H  0.11615587  0.79777183  0.54994030     0.14100
H692        H  0.14407645  0.78910156  0.97807695     0.14700
C693        C  0.04930804  0.90948844  0.47578743    -0.14900
C694        C  0.03743394  0.87937969  0.48712322    -0.30100
H695        H  0.06625345  0.90715951  0.45889208     0.14100
H696        H  0.02285018  0.88146902  0.50688210     0.14700
C697        C  0.47707658  0.51786529  0.37823170    -0.14900
C698        C  0.45948702  0.50924988  0.40178341    -0.30100
H699        H  0.50231432  0.51795744  0.38851865     0.14100
H700        H  0.43430704  0.50772547  0.39280311     0.14700
C701        C  0.03719372  0.96382316  0.13008704    -0.14900
C702        C  0.05664876  0.97489617  0.10973118    -0.30100
H703        H  0.01232257  0.96279713  0.11733170     0.14100
H704        H  0.08155596  0.97656879  0.12119968     0.14700
C705        C  0.25289568  0.88532455  0.03869974    -0.14900
C706        C  0.22547620  0.86829949  0.02635808    -0.30100
H707        H  0.19294475  0.88640771  0.50723175     0.14100
H708        H  0.20790224  0.87942886  0.00349415     0.14700
C709        C  0.26807248  0.52396311  0.11051949    -0.14900
C710        C  0.29602546  0.52321991  0.13512424    -0.30100
H711        H  0.32761598  0.01053658  0.12319488     0.14100
H712        H  0.31656941  0.51450517  0.12598365     0.14700
C713        C  0.21539806  0.96227719  0.37253239    -0.14900
C714        C  0.24286765  0.96191979  0.39787699    -0.30100
H715        H  0.19459124  0.97138142  0.38088450     0.14100
H716        H  0.26366013  0.95212303  0.38997050     0.14700
C717        C  0.49866808  0.71376083  0.15383964    -0.14900
C718        C  0.47115886  0.71748208  0.12931285    -0.30100
H719        H  0.51845220  0.70219895  0.14495358     0.14100
H720        H  0.45123967  0.72810524  0.13862428     0.14700
C721        C  0.01463041  0.76459316  0.51463536    -0.14900
C722        C  0.49619965  0.73383600  0.00360450    -0.30100
H723        H  0.02025476  0.77141186  0.04177238     0.14100
H724        H  0.48423215  0.72447107  0.47488419     0.14700
C725        C  0.47759860  0.61769348  0.03701873    -0.14900
C726        C  0.45539898  0.59592491  0.01671900    -0.30100
H727        H  0.50075513  0.60686243  0.04875554     0.14100
H728        H  0.43151605  0.60570663  0.00803672     0.14700
C729        C  0.29742411  0.72044790  0.36578510    -0.14900
C730        C  0.28005453  0.70761242  0.38807784    -0.30100
H731        H  0.32193451  0.72657570  0.37640578     0.14100
H732        H  0.25534346  0.70292166  0.37630985     0.14700
C733        C  0.24238596  0.74880440  0.00715695    -0.14900
C734        C  0.26501881  0.73292130  0.51667870    -0.30100
H735        H  0.23203396  0.75278229  0.97792855     0.14100
H736        H  0.27855599  0.72375197  0.04682591     0.14700
C737        C  0.27801072  0.61671660  0.48625529    -0.14900
C738        C  0.28077521  0.58484016  0.46898447    -0.30100
H739        H  0.26826980  0.61733291  0.51052188     0.14100
H740        H  0.29327782  0.58377568  0.44706331     0.14700
C741        C  0.36345854  0.69543078  0.51222301    -0.14900
C742        C  0.39621462  0.69647328  0.00523037    -0.30100
H743        H  0.36392997  0.69250659  0.54139431     0.14100
H744        H  0.39580298  0.69418917  0.97593739     0.14700
C745        C  0.29865025  0.69765503  0.93237878     0.88000
C746        C  0.33253827  0.70323537  0.95389192    -0.52200
C747        C  0.33819539  0.69388274  0.99033725     0.10900
C748        C  0.30903036  0.68042398  0.00198380     0.21900
C749        C  0.29145288  0.65763736  0.93838313    -0.52900
C750        C  0.29690016  0.64865153  0.97496606     0.11100
C751        C  0.27923297  0.71993119  0.95401444    -0.52500
C752        C  0.28435687  0.71078559  0.99065968     0.11600
H753        H  0.35029218  0.71385727  0.94114769     0.16100
H754        H  0.30765227  0.67599088  0.52901838     0.01900
H755        H  0.28334539  0.63810709  0.91583827     0.16400
H756        H  0.26333245  0.74121469  0.94111954     0.16200
C757        C  0.46147341  0.69860799  0.58724079     0.88000
C758        C  0.42726560  0.70451642  0.56575571    -0.52200
C759        C  0.42187440  0.69619903  0.52855921     0.10900
C760        C  0.45136728  0.68347976  0.51647244     0.21900
C761        C  0.46864175  0.65886270  0.57852877    -0.52900
C762        C  0.46351097  0.65099922  0.54146281     0.11100
C763        C  0.48081033  0.72156578  0.56674044    -0.52500
C764        C  0.47589517  0.71349734  0.52971704     0.11600
H765        H  0.40897505  0.71421821  0.57835117     0.16100
H766        H  0.45324722  0.67625219  0.99059969     0.01900
H767        H  0.47841038  0.63922993  0.59984747     0.16400
H768        H  0.49727123  0.74198487  0.58096427     0.16200
O769        O  0.20993974  0.95684694  0.50456207    -0.70200
O770        O  0.23602242  0.54368618  0.98465639    -0.70500
O771        O  0.23388265  0.97997662  0.95321665    -0.70300
O772        O  0.23005264  0.51130554  0.53975209    -0.70300
O773        O  0.27609664  0.99572629  0.56202521    -0.70300
O774        O  0.27981771  0.95778064  0.95426170    -0.70300
O775        O  0.28578753  0.53319605  0.99392885    -0.70200
O776        O  0.25721954  0.93561821  0.52089897    -0.70400
V777        V  0.22445853  0.50037549  0.48841583     1.35200
V778        V  0.27225551  0.98214160  0.51161515     1.35200
C779        C  0.22820404  0.93051102  0.51584777     0.79000
C780        C  0.26293713  0.55478187  0.98428075     0.79100
C781        C  0.25208449  0.96375745  0.93650878     0.78900
C782        C  0.25635644  0.50619333  0.56162149     0.78900
O783        O  0.49865824  0.96606180  0.55038952    -0.70200
O784        O  0.44970739  0.99819992  0.96026881    -0.70500
O785        O  0.48004307  0.93785860  0.98861712    -0.70300
O786        O  0.46662704  0.51984109  0.52919714    -0.70300
O787        O  0.00726006  0.55936566  0.51696414    -0.70300
O788        O  0.05652875  0.96572566  0.98484922    -0.70300
O789        O  0.99602239  0.51858389  0.93488128    -0.70200
O790        O  0.06154729  0.00412828  0.55644731    -0.70400
V791        V  0.48246401  0.97406059  0.49897688     1.35200
V792        V  0.02287997  0.51429763  0.50279055     1.35200
C793        C  0.04188036  0.99238164  0.57317763     0.79000
C794        C  0.45881778  0.50573760  0.92439905     0.79100
C795        C  0.03795293  0.93925256  0.98294126     0.78900
C796        C  0.48049310  0.54982673  0.52866550     0.78900
C797        C  0.21338778  0.78585081  0.59584208     0.88000
C798        C  0.23062395  0.76270291  0.57227618    -0.52200
C799        C  0.22696301  0.77482719  0.53676506     0.10900
C800        C  0.20566425  0.80872349  0.52823401     0.21900
C801        C  0.22491443  0.82501853  0.59355293    -0.52900
C802        C  0.22076412  0.83711774  0.55810401     0.11100
C803        C  0.17931466  0.78590588  0.57386346    -0.52500
C804        C  0.17509384  0.79796795  0.53838467     0.11600
H805        H  0.24422594  0.73889341  0.58317161     0.16100
H806        H  0.19943783  0.80473713  0.98937571     0.01900
H807        H  0.23564795  0.84154831  0.61776051     0.16400
H808        H  0.16048570  0.77633155  0.58540760     0.16200
C809        C  0.04720220  0.78537034  0.93007449     0.88000
C810        C  0.02722943  0.76396789  0.95116539    -0.52200
C811        C  0.03201337  0.77390044  0.98784538     0.10900
C812        C  0.05616335  0.80449478  0.99972636     0.21900
C813        C  0.04017835  0.82578327  0.93619085    -0.52900
C814        C  0.04462128  0.83566586  0.97270636     0.11100
C815        C  0.08101068  0.77993894  0.95264349    -0.52500
C816        C  0.08585935  0.79031448  0.98931158     0.11600
H817        H  0.01084258  0.74313087  0.93778661     0.16100
H818        H  0.05889130  0.82004887  0.53198699     0.01900
H819        H  0.03169617  0.84460492  0.91367095     0.16400
H820        H  0.09918098  0.76890477  0.94044978     0.16200
C821        C  0.03935620  0.95842555  0.67162564     0.88000
C822        C  0.07378197  0.95776141  0.69399342    -0.52200
C823        C  0.07765581  0.94559285  0.72965459     0.10900
C824        C  0.04676970  0.93533084  0.73933011     0.21900
C825        C  0.02743343  0.91958438  0.67399489    -0.52900
C826        C  0.03146357  0.90733652  0.70922749     0.11100
C827        C  0.02240265  0.98166018  0.69538726    -0.52500
C828        C  0.02583501  0.96950716  0.73079998     0.11600
H829        H  0.09315329  0.96667238  0.68323613     0.16100
H830        H  0.04958834  0.92532171  0.76806673     0.01900
H831        H  0.01610497  0.90335565  0.64978987     0.16400
H832        H  0.00870881  0.00543227  0.68451093     0.16200
C833        C  0.20612509  0.94465197  0.83486561     0.88000
C834        C  0.17173980  0.94792938  0.81353227    -0.52200
C835        C  0.16668442  0.93924752  0.77639753     0.10900
C836        C  0.19669752  0.92815815  0.76451570     0.21900
C837        C  0.21546946  0.90534744  0.82710135    -0.52900
C838        C  0.21091372  0.89679550  0.79020265     0.11100
C839        C  0.22397415  0.96897891  0.81364882    -0.52500
C840        C  0.21924406  0.96020421  0.77677581     0.11600
H841        H  0.15349645  0.95716515  0.82659689     0.16100
H842        H  0.19282173  0.92099299  0.73453616     0.03500
H843        H  0.22623601  0.88668905  0.84893610     0.16400
H844        H  0.23887625  0.99109267  0.82714259     0.16200
O845        O  0.22639265  0.74272242  0.70690808    -0.70200
O846        O  0.23794695  0.70665537  0.80469480    -0.70500
O847        O  0.21612084  0.76872860  0.77130970    -0.70300
O848        O  0.24827400  0.67999837  0.74056803    -0.70300
O849        O  0.29536691  0.70085594  0.76056534    -0.70300
O850        O  0.26193857  0.79348758  0.77953330    -0.70300
O851        O  0.28275678  0.73422279  0.81987588    -0.70200
O852        O  0.27477061  0.76029563  0.71980011    -0.70400
V853        V  0.23301788  0.72492401  0.75598382     1.35200
V854        V  0.27785764  0.74680491  0.76963092     1.35200
C855        C  0.24885665  0.75713319  0.69660008     0.79000
C856        C  0.26210769  0.71528900  0.82919156     0.79100
C857        C  0.23348227  0.79632129  0.78017142     0.78900
C858        C  0.27742987  0.67477257  0.74682542     0.78900
O859        O  0.01719548  0.72777084  0.71113728    -0.70200
O860        O  0.02834963  0.74920243  0.81386931    -0.70500
O861        O  0.00456274  0.69261410  0.76847065    -0.70300
O862        O  0.04032418  0.78463125  0.75628594    -0.70300
O863        O  0.46771817  0.80474637  0.73849403    -0.70300
O864        O  0.45188082  0.71216809  0.77479969    -0.70300
O865        O  0.47443547  0.77593725  0.80638334    -0.70200
O866        O  0.44497911  0.74135875  0.70734554    -0.70400
V867        V  0.02174702  0.73898187  0.76222385     1.35200
V868        V  0.46068417  0.75824446  0.75685268     1.35200
C869        C  0.46377207  0.72996264  0.68885850     0.79000
C870        C  0.00865821  0.76834493  0.82551285     0.79100
C871        C  0.47128569  0.68644369  0.77619277     0.78900
C872        C  0.02285111  0.81170377  0.74528498     0.78900
C873        C  0.29356084  0.52811851  0.66534921     0.88000
C874        C  0.27654662  0.50553917  0.68904323    -0.52200
C875        C  0.28087019  0.51802798  0.72504194     0.10900
C876        C  0.30254091  0.55173817  0.73370397     0.21900
C877        C  0.28241212  0.56746921  0.66889016    -0.52900
C878        C  0.28695263  0.57995951  0.70455886     0.11100
C879        C  0.32787704  0.52785324  0.68670996    -0.52500
C880        C  0.33289639  0.54027651  0.72257993     0.11600
H881        H  0.25459877  0.98757801  0.68370465     0.16100
H882        H  0.30625239  0.56192561  0.76279465     0.01900
H883        H  0.27116461  0.58378290  0.64519599     0.16400
H884        H  0.34631900  0.51790756  0.67436319     0.16200
C885        C  0.46113812  0.53455114  0.82496614     0.88000
C886        C  0.48049304  0.51112139  0.80430376    -0.52200
C887        C  0.47658755  0.51942397  0.76768961     0.10900
C888        C  0.45290962  0.55069654  0.75515156     0.21900
C889        C  0.46939320  0.57401606  0.81857017    -0.52900
C890        C  0.46507334  0.58266732  0.78208347     0.11100
C891        C  0.42714067  0.53000691  0.80239641    -0.52500
C892        C  0.42264360  0.53893070  0.76582076     0.11600
H893        H  0.48949603  0.98930995  0.82438113     0.16100
H894        H  0.44946118  0.55784119  0.72544819     0.01900
H895        H  0.47825341  0.59336562  0.84108106     0.16400
H896        H  0.40820969  0.52082937  0.81376591     0.16200
C897        C  0.36418237  0.54146768  0.74915749    -0.14900
C898        C  0.39156652  0.53859718  0.73885136    -0.30100
H899        H  0.36434634  0.54565395  0.77820185     0.14100
H900        H  0.39168159  0.53748073  0.70968134     0.14700
C901        C  0.47162388  0.61947887  0.77001240    -0.14900
C902        C  0.46394347  0.64970374  0.78688003    -0.30100
H903        H  0.48190293  0.62174329  0.74631380     0.14100
H904        H  0.45070034  0.64745763  0.80793696     0.14700
C905        C  0.29043515  0.63894256  0.73910937    -0.14900
C906        C  0.27438512  0.61581708  0.71317961    -0.30100
H907        H  0.31402266  0.63200004  0.75401701     0.14100
H908        H  0.25194827  0.62427339  0.69605883     0.14700
C909        C  0.23420943  0.97856043  0.75011484    -0.14900
C910        C  0.26554535  0.50251352  0.75342064    -0.30100
H911        H  0.22522230  0.97144985  0.72109026     0.14100
H912        H  0.27361958  0.51272206  0.78163585     0.14700
C913        C  0.22204565  0.86227785  0.77615728    -0.14900
C914        C  0.22099031  0.83025302  0.79286477    -0.30100
H915        H  0.23072034  0.86319654  0.75115059     0.14100
H916        H  0.20962049  0.82851783  0.81569257     0.14700
C917        C  0.01022175  0.98613066  0.75850867    -0.14900
C918        C  0.49344245  0.50074487  0.74209495    -0.30100
H919        H  0.01901143  0.97790008  0.78701058     0.14100
H920        H  0.48534084  0.50672116  0.71285730     0.14700
C921        C  0.01892555  0.87178893  0.71666435    -0.14900
C922        C  0.03610957  0.84730583  0.73927361    -0.30100
H923        H  0.99555056  0.86465546  0.70101671     0.14100
H924        H  0.06038980  0.85305693  0.75244479     0.14700
C925        C  0.13605125  0.94180199  0.74867549    -0.14900
C926        C  0.10818267  0.94304383  0.75763040    -0.30100
H927        H  0.13679544  0.94140634  0.71966511     0.14100
H928        H  0.10727668  0.94072603  0.78646651     0.14700
C929        C  0.01398216  0.77890079  0.86520876    -0.14900
C930        C  0.04176495  0.77421830  0.88949574    -0.30100
H931        H  0.99487652  0.79153180  0.87464412     0.14100
H932        H  0.06108786  0.76242689  0.87984038     0.14700
C933        C  0.24523696  0.77033501  0.65860222    -0.14900
C934        C  0.21722221  0.77226390  0.63476795    -0.30100
H935        H  0.26587661  0.77935071  0.65015061     0.14100
H936        H  0.19657837  0.76381810  0.64357142     0.14700
C937        C  0.11653301  0.78949938  0.01705401    -0.14900
C938        C  0.14444600  0.79941948  0.51127101    -0.30100
H939        H  0.11620526  0.79194894  0.04613278     0.14100
H940        H  0.14489998  0.80277202  0.48239814     0.14700
C941        C  0.04604747  0.90285124  0.97077500    -0.14900
C942        C  0.03746850  0.87243931  0.98535235    -0.30100
H943        H  0.06017801  0.90095621  0.95051734     0.14100
H944        H  0.02609734  0.87444810  0.00825678     0.14700
C945        C  0.46910396  0.52603610  0.86584891    -0.14900
C946        C  0.44898013  0.51350760  0.88461833    -0.30100
H947        H  0.49326438  0.53034426  0.88054223     0.14100
H948        H  0.42481796  0.50849248  0.87120243     0.14700
C949        C  0.03151788  0.97097155  0.63167716    -0.14900
C950        C  0.05202980  0.98217362  0.61265677    -0.30100
H951        H  0.00692308  0.97020895  0.61760264     0.14100
H952        H  0.07667941  0.98374709  0.62561794     0.14700
C953        C  0.21598388  0.89462616  0.52300878    -0.14900
C954        C  0.23213601  0.87325815  0.55001462    -0.30100
H955        H  0.27145724  0.87222654  0.05902085     0.14100
H956        H  0.25373314  0.88328840  0.56802146     0.14700
C957        C  0.26094749  0.51600910  0.60133473    -0.14900
C958        C  0.28895060  0.51491991  0.62547773    -0.30100
H959        H  0.23538556  0.03250730  0.61867699     0.14100
H960        H  0.30916541  0.50580754  0.61586016     0.14700
C961        C  0.21299313  0.95464743  0.87592379    -0.14900
C962        C  0.24236328  0.95240822  0.89703739    -0.30100
H963        H  0.19426824  0.96440509  0.88798671     0.14100
H964        H  0.26060477  0.94211552  0.88439729     0.14700
C965        C  0.45193738  0.71969601  0.64934042    -0.14900
C966        C  0.47089250  0.70687034  0.62863134    -0.30100
H967        H  0.42732831  0.72381752  0.63740825     0.14100
H968        H  0.49541376  0.70279123  0.64189767     0.14700
C969        C  0.01617367  0.75777879  0.01494943    -0.14900
C970        C  0.49340782  0.72979266  0.50428415    -0.30100
H971        H  0.02270032  0.77132362  0.54391657     0.14100
H972        H  0.49023499  0.72211253  0.97583999     0.14700
C973        C  0.47257750  0.61603000  0.52667505    -0.14900
C974        C  0.46819484  0.58381490  0.54131669    -0.30100
H975        H  0.48297933  0.61693902  0.50296875     0.14100
H976        H  0.45529916  0.58240384  0.56278443     0.14700
C977        C  0.26609381  0.70376446  0.86779337    -0.14900
C978        C  0.29357497  0.70806183  0.89237574    -0.30100
H979        H  0.24654605  0.69153152  0.87617874     0.14100
H980        H  0.31313773  0.71947927  0.88331449     0.14700
C981        C  0.24182230  0.75784785  0.50850224    -0.14900
C982        C  0.26830402  0.72813969  0.01762097    -0.30100
H983        H  0.23328807  0.76685878  0.48024207     0.14100
H984        H  0.27383843  0.72450840  0.54510567     0.14700
C985        C  0.29267692  0.61147595  0.98754392    -0.14900
C986        C  0.26721173  0.59189524  0.97215959    -0.30100
H987        H  0.30996127  0.60086004  0.01098826     0.14100
H988        H  0.24845279  0.60402330  0.95132796     0.14700
C989        C  0.36933609  0.69573866  0.01649457    -0.14900
C990        C  0.39067314  0.69753755  0.50177057    -0.30100
H991        H  0.36986351  0.69468982  0.04583688     0.14100
H992        H  0.39051204  0.69778350  0.47251281     0.14700
C993        C  0.78961397  0.19610701  0.41145744     0.88000
C994        C  0.82374376  0.19718709  0.43341690    -0.52200
C995        C  0.82851078  0.18504547  0.46897974     0.10900
C996        C  0.79822850  0.17254773  0.47895412     0.21900
C997        C  0.77911802  0.15658226  0.41351167    -0.52900
C998        C  0.78342789  0.14416299  0.44877851     0.11100
C999        C  0.77182638  0.21823948  0.43529849    -0.52500
C1000       C  0.77611663  0.20573165  0.47080670     0.11600
H1001       H  0.84207609  0.20818902  0.42190425     0.16100
H1002       H  0.80090598  0.18032357  0.02218376     0.01900
H1003       H  0.76826326  0.14021979  0.38921202     0.16400
H1004       H  0.75750486  0.24164103  0.42472751     0.16200
C1005       C  0.95847879  0.19986524  0.08473595     0.88000
C1006       C  0.92398364  0.20134631  0.06375225    -0.52200
C1007       C  0.91854596  0.19027651  0.02741885     0.10900
C1008       C  0.94835298  0.17876740  0.01553967     0.21900
C1009       C  0.96882352  0.16038548  0.07957204    -0.52900
C1010       C  0.96352722  0.14947825  0.04324196     0.11100
C1011       C  0.97553385  0.22294826  0.06155158    -0.52500
C1012       C  0.97052433  0.21165026  0.02513562     0.11600
H1013       H  0.90580639  0.21113772  0.07662324     0.16100
H1014       H  0.94570964  0.17960150  0.47595756     0.01900
H1015       H  0.97928129  0.14271086  0.10244556     0.16400
H1016       H  0.99009570  0.24593307  0.07336729     0.16200
O1017       O  0.72435967  0.45509598  0.01138210    -0.70200
O1018       O  0.74478108  0.04497125  0.48372617    -0.70500
O1019       O  0.72416819  0.48338041  0.44228082    -0.70300
O1020       O  0.73506953  0.02493496  0.04304298    -0.70300
O1021       O  0.78596412  0.50892912  0.05891420    -0.70300
O1022       O  0.76825155  0.45507866  0.44661687    -0.70300
O1023       O  0.79185769  0.02286689  0.49634954    -0.70200
O1024       O  0.77420123  0.44434760  0.02363677    -0.70400
V1025       V  0.72750949  0.00733880  0.99321900     1.35200
V1026       V  0.78024226  0.49280400  0.00885973     1.35200
C1027       C  0.74687338  0.43334272  0.02241847     0.79000
C1028       C  0.77376720  0.04978451  0.48758611     0.79100
C1029       C  0.74236827  0.46544891  0.42687610     0.78900
C1030       C  0.76124105  0.01912547  0.06500581     0.78900
O1031       O  0.99334905  0.47595507  0.04261587    -0.70200
O1032       O  0.96184373  0.49843246  0.45851520    -0.70500
O1033       O  0.99748040  0.44241914  0.49091745    -0.70300
O1034       O  0.98942672  0.04005368  0.01699838    -0.70300
O1035       O  0.50051337  0.05300521  0.01409758    -0.70300
O1036       O  0.54005007  0.46144752  0.49070530    -0.70300
O1037       O  0.50516303  0.01342019  0.44516348    -0.70200
O1038       O  0.51027525  0.48892397  0.04544291    -0.70400
V1039       V  0.97563490  0.48131447  0.99109607     1.35200
V1040       V  0.51280506  0.00532014  0.00170966     1.35200
C1041       C  0.49009231  0.47813530  0.06195099     0.79000
C1042       C  0.00910439  0.02599854  0.43651648     0.79100
C1043       C  0.52475488  0.43207242  0.48773603     0.78900
C1044       C  0.00938507  0.06539148  0.02402726     0.78900
C1045       C  0.70362600  0.29404157  0.07658303     0.88000
C1046       C  0.72176480  0.26945629  0.05542066    -0.52200
C1047       C  0.71783655  0.27820853  0.01890969     0.10900
C1048       C  0.69500243  0.31022086  0.00680945     0.21900
C1049       C  0.71345604  0.33314525  0.07028771    -0.52900
C1050       C  0.70880126  0.34164262  0.03358540     0.11100
C1051       C  0.66951724  0.29101921  0.05459914    -0.52500
C1052       C  0.66479994  0.29958953  0.01793173     0.11600
H1053       H  0.73638626  0.24726457  0.06869341     0.16100
H1054       H  0.70019874  0.30780721  0.48632546     0.01900
H1055       H  0.72258186  0.35247822  0.09269363     0.16400
H1056       H  0.65102792  0.28218187  0.06711657     0.16200
C1057       C  0.54581338  0.28416611  0.42722199     0.88000
C1058       C  0.52651847  0.26007996  0.44694302    -0.52200
C1059       C  0.53066716  0.26807229  0.48400819     0.10900
C1060       C  0.55417395  0.29914025  0.49770141     0.21900
C1061       C  0.53725379  0.32364293  0.43545532    -0.52900
C1062       C  0.54129203  0.33124794  0.47250114     0.11100
C1063       C  0.57961132  0.27959074  0.44925773    -0.52500
C1064       C  0.58431923  0.28802486  0.48614049     0.11600
H1065       H  0.51108672  0.23881953  0.43248273     0.16100
H1066       H  0.55019862  0.32072552  0.01613464     0.01900
H1067       H  0.52766866  0.34319290  0.41399343     0.16400
H1068       H  0.59811853  0.27063712  0.43648060     0.16200
C1069       C  0.53496736  0.45546883  0.16130243     0.88000
C1070       C  0.56960715  0.45682553  0.18172272    -0.52200
C1071       C  0.57541250  0.44413446  0.21729921     0.10900
C1072       C  0.54601830  0.43094814  0.22856378     0.21900
C1073       C  0.52515247  0.41565167  0.16341818    -0.52900
C1074       C  0.53089722  0.40278268  0.19854908     0.11100
C1075       C  0.51810768  0.47688720  0.18660799    -0.52500
C1076       C  0.52367077  0.46381498  0.22193693     0.11600
H1077       H  0.58739472  0.46796549  0.16936955     0.16100
H1078       H  0.55053099  0.42044513  0.25729662     0.01900
H1079       H  0.51386261  0.39934256  0.13926769     0.16400
H1080       H  0.50340689  0.50026694  0.17700501     0.16200
C1081       C  0.70122680  0.45167155  0.32308387     0.88000
C1082       C  0.66787158  0.45823670  0.29999483    -0.52200
C1083       C  0.66374659  0.44910552  0.26315673     0.10900
C1084       C  0.69345469  0.43484122  0.25297288     0.21900
C1085       C  0.70790311  0.41136243  0.31576120    -0.52900
C1086       C  0.70373460  0.40260780  0.27897932     0.11100
C1087       C  0.72210546  0.47334564  0.30357858    -0.52500
C1088       C  0.71847657  0.46432319  0.26686026     0.11600
H1089       H  0.64930627  0.46880447  0.31183701     0.16100
H1090       H  0.69015022  0.42742750  0.22311372     0.03500
H1091       H  0.71478202  0.39147593  0.33762985     0.16400
H1092       H  0.73813633  0.49399809  0.31810295     0.16200
O1093       O  0.71767445  0.25660004  0.18925782    -0.70200
O1094       O  0.72765207  0.22154991  0.28700392    -0.70500
O1095       O  0.71538511  0.28688289  0.25456531    -0.70300
O1096       O  0.73022934  0.19120375  0.22100736    -0.70300
O1097       O  0.77996109  0.20247875  0.23357849    -0.70300
O1098       O  0.76512145  0.29807321  0.26628911    -0.70300
O1099       O  0.77723708  0.23340494  0.29858980    -0.70200
O1100       O  0.76734657  0.26776139  0.20033704    -0.70400
V1101       V  0.72370945  0.23920769  0.23820726     1.35200
V1102       V  0.77143877  0.25020037  0.24935601     1.35200
C1103       C  0.74067312  0.26838102  0.17819818     0.79000
C1104       C  0.75406902  0.22194854  0.30958688     0.79100
C1105       C  0.73786555  0.30864112  0.26623328     0.78900
C1106       C  0.75768078  0.18051435  0.22190521     0.78900
O1107       O  0.52077743  0.22488662  0.20965500    -0.70200
O1108       O  0.53098639  0.24985649  0.31169714    -0.70500
O1109       O  0.50957449  0.19110277  0.26887623    -0.70300
O1110       O  0.54225168  0.28355811  0.25275994    -0.70300
O1111       O  0.99501430  0.30219367  0.23332390    -0.70300
O1112       O  0.96650808  0.21341843  0.26483766    -0.70300
O1113       O  0.98750065  0.27667483  0.29797297    -0.70200
O1114       O  0.97392321  0.23877353  0.19948452    -0.70400
V1115       V  0.52505019  0.23773414  0.26051156     1.35200
V1116       V  0.98161430  0.25732242  0.24902028     1.35200
C1117       C  0.99612019  0.22479090  0.18778162     0.79000
C1118       C  0.51038865  0.26835088  0.32242692     0.79100
C1119       C  0.98481811  0.18665385  0.27333431     0.78900
C1120       C  0.52402380  0.30955634  0.24038853     0.78900
C1121       C  0.79961244  0.03819107  0.16887186     0.88000
C1122       C  0.78011195  0.01553080  0.18943680    -0.52200
C1123       C  0.78411900  0.02510774  0.22611904     0.10900
C1124       C  0.80782127  0.05632191  0.23865905     0.21900
C1125       C  0.79117665  0.07807804  0.17531859    -0.52900
C1126       C  0.79539940  0.08756295  0.21191135     0.11100
C1127       C  0.83347151  0.03376310  0.19151418    -0.52500
C1128       C  0.83794430  0.04347305  0.22823871     0.11600
H1129       H  0.76209020  0.49092531  0.17865487     0.16100
H1130       H  0.81122170  0.06431951  0.26838146     0.01900
H1131       H  0.78294263  0.09716554  0.15297697     0.16400
H1132       H  0.85194942  0.02362446  0.17932522     0.16200
C1133       C  0.96618378  0.03948104  0.33333576     0.88000
C1134       C  0.98466963  0.01441313  0.31256502    -0.52200
C1135       C  0.97991192  0.02183556  0.27563953     0.10900
C1136       C  0.95704846  0.05341835  0.26299068     0.21900
C1137       C  0.97506913  0.07857702  0.32542018    -0.52900
C1138       C  0.97067155  0.08564278  0.28851190     0.11100
C1139       C  0.93192549  0.03541125  0.31169478    -0.52500
C1140       C  0.92703280  0.04295839  0.27462819     0.11600
H1141       H  0.99813998  0.49510623  0.32237818     0.16100
H1142       H  0.95327127  0.05963468  0.23301160     0.01900
H1143       H  0.98517706  0.09831352  0.34705788     0.16400
H1144       H  0.91354948  0.02710812  0.32465515     0.16200
C1145       C  0.86851906  0.04252380  0.25618820    -0.14900
C1146       C  0.89631183  0.04154305  0.24704674    -0.30100
H1147       H  0.86783453  0.04485582  0.28516557     0.14100
H1148       H  0.89700221  0.04187401  0.21802990     0.14700
C1149       C  0.98099600  0.11977094  0.27436892    -0.14900
C1150       C  0.97364760  0.15261921  0.28623051    -0.30100
H1151       H  0.99385579  0.11776788  0.25284641     0.14100
H1152       H  0.95812460  0.15461493  0.30490819     0.14700
C1153       C  0.76343321  0.14337963  0.20918689    -0.14900
C1154       C  0.78942221  0.12473104  0.22482134    -0.30100
H1155       H  0.74544258  0.13049672  0.18764350     0.14100
H1156       H  0.80593742  0.13612306  0.24883952     0.14700
C1157       C  0.73675186  0.48061553  0.24219769    -0.14900
C1158       C  0.76726937  0.00835418  0.25208779    -0.30100
H1159       H  0.72818028  0.47582567  0.21262185     0.14100
H1160       H  0.77528162  0.01615170  0.28108479     0.14700
C1161       C  0.70772826  0.36531817  0.26516904    -0.14900
C1162       C  0.73292886  0.34534712  0.28026372    -0.30100
H1163       H  0.69085987  0.35521738  0.24076978     0.14100
H1164       H  0.75132991  0.35713226  0.30211648     0.14700
C1165       C  0.51030705  0.47912003  0.25203219    -0.14900
C1166       C  0.99486272  0.00268815  0.24885363    -0.30100
H1167       H  0.52057052  0.46952778  0.27975262     0.14100
H1168       H  0.98487024  0.00854472  0.21995329     0.14700
C1169       C  0.51980019  0.36655545  0.20630006    -0.14900
C1170       C  0.53641331  0.34498332  0.23260264    -0.30100
H1171       H  0.49778355  0.35689148  0.18894294     0.14100
H1172       H  0.55970003  0.35296500  0.24776143     0.14700
C1173       C  0.63345558  0.45043297  0.23529755    -0.14900
C1174       C  0.60618470  0.44477358  0.24443277    -0.30100
H1175       H  0.63413648  0.45319855  0.20644409     0.14100
H1176       H  0.60623067  0.43908161  0.27307782     0.14700
C1177       C  0.51431977  0.27906429  0.36172824    -0.14900
C1178       C  0.54166358  0.27493675  0.38655141    -0.30100
H1179       H  0.49443657  0.29045875  0.37054391     0.14100
H1180       H  0.56162905  0.26440331  0.37726613     0.14700
C1181       C  0.73653999  0.28218135  0.14020583    -0.14900
C1182       C  0.70818343  0.28377839  0.11674229    -0.30100
H1183       H  0.75705986  0.29007459  0.13087040     0.14100
H1184       H  0.68777659  0.27587725  0.12632676     0.14700
C1185       C  0.61548203  0.28775331  0.51255733    -0.14900
C1186       C  0.63386209  0.29866809  0.99083149    -0.30100
H1187       H  0.61573051  0.28617402  0.54176791     0.14100
H1188       H  0.63393537  0.29853623  0.96162552     0.14700
C1189       C  0.53709982  0.39833093  0.47464921    -0.14900
C1190       C  0.53111874  0.36568326  0.48713534    -0.30100
H1191       H  0.55168419  0.40030267  0.45496324     0.14100
H1192       H  0.51906236  0.36403961  0.50938493     0.14700
C1193       C  0.97227131  0.03121164  0.37438044    -0.14900
C1194       C  0.00103631  0.03500693  0.39669057    -0.30100
H1195       H  0.95320623  0.02183364  0.38569543     0.14100
H1196       H  0.01972777  0.04500490  0.38504422     0.14700
C1197       C  0.52781904  0.46909989  0.12206883    -0.14900
C1198       C  0.49836336  0.46876881  0.10138235    -0.30100
H1199       H  0.54676970  0.47798480  0.11027842     0.14100
H1200       H  0.47968804  0.45965270  0.11356331     0.14700
C1201       C  0.74155293  0.39627502  0.03455781    -0.14900
C1202       C  0.71486649  0.37819255  0.02046006    -0.30100
H1203       H  0.69512148  0.38008657  0.50225287     0.14100
H1204       H  0.69750673  0.38969692  0.99761621     0.14700
C1205       C  0.76692718  0.03113989  0.10420789    -0.14900
C1206       C  0.79481741  0.02751909  0.12832773    -0.30100
H1207       H  0.74523156  0.53883945  0.11877036     0.14100
H1208       H  0.81442207  0.01640821  0.11873275     0.14700
C1209       C  0.70650312  0.46154939  0.36390757    -0.14900
C1210       C  0.73468468  0.45644500  0.38688929    -0.30100
H1211       H  0.68749207  0.47292362  0.37448791     0.14100
H1212       H  0.75319836  0.44444554  0.37577729     0.14700
C1213       C  0.99170259  0.21223060  0.14876626    -0.14900
C1214       C  0.96352477  0.21237887  0.12483332    -0.30100
H1215       H  0.01189546  0.20253239  0.13948146     0.14100
H1216       H  0.94339282  0.22167581  0.13450558     0.14700
C1217       C  0.51391240  0.25020254  0.50946792    -0.14900
C1218       C  0.98519058  0.22792081  0.99686839    -0.30100
H1219       H  0.51864007  0.27009740  0.03464067     0.14100
H1220       H  0.97842855  0.23293844  0.46334299     0.14700
C1221       C  0.97148753  0.11280181  0.03133333    -0.14900
C1222       C  0.00125160  0.10176194  0.03659950    -0.30100
H1223       H  0.95265543  0.09571736  0.01583568     0.14100
H1224       H  0.02001953  0.12024765  0.04956265     0.14700
C1225       C  0.75754051  0.20949189  0.34790931    -0.14900
C1226       C  0.78537812  0.20959456  0.37238697    -0.30100
H1227       H  0.73702484  0.19991130  0.35621619     0.14100
H1228       H  0.80580614  0.21907360  0.36379614     0.14700
C1229       C  0.73462307  0.26004891  0.99327453    -0.14900
C1230       C  0.76150611  0.22169784  0.49969609    -0.30100
H1231       H  0.72562724  0.26473807  0.96387377     0.14100
H1232       H  0.76930535  0.23448177  0.03452730     0.14700
C1233       C  0.77080590  0.10848018  0.45615629    -0.14900
C1234       C  0.78646372  0.08588534  0.48212518    -0.30100
H1235       H  0.74884652  0.09958579  0.43802891     0.14100
H1236       H  0.80982555  0.09297837  0.49781285     0.14700
C1237       C  0.85910131  0.18693500  0.49677123    -0.14900
C1238       C  0.88751480  0.19061031  0.00062751    -0.30100
H1239       H  0.85878269  0.18328087  0.52564765     0.14100
H1240       H  0.88755686  0.18653974  0.97162202     0.14700
C1241       C  0.79241556  0.20361520  0.92328523     0.88000
C1242       C  0.82618690  0.20525036  0.94633512    -0.52200
C1243       C  0.82958433  0.19637315  0.98275720     0.10900
C1244       C  0.79843923  0.18744087  0.99260842     0.21900
C1245       C  0.78139352  0.16489480  0.92889851    -0.52900
C1246       C  0.78434315  0.15663623  0.96533907     0.11100
C1247       C  0.77415599  0.22906291  0.94364163    -0.52500
C1248       C  0.77695270  0.22035916  0.97993706     0.11600
H1249       H  0.84548651  0.21295232  0.93464768     0.16100
H1250       H  0.80174439  0.16245832  0.50774788     0.01900
H1251       H  0.77137940  0.14621033  0.90620963     0.16400
H1252       H  0.76027652  0.25170953  0.93014015     0.16200
C1253       C  0.95398056  0.20666696  0.57472641     0.88000
C1254       C  0.92005901  0.20676961  0.55172362    -0.52200
C1255       C  0.91685318  0.19649582  0.51539718     0.10900
C1256       C  0.94809464  0.18788214  0.50545842     0.21900
C1257       C  0.96608050  0.16805422  0.56930717    -0.52900
C1258       C  0.96299029  0.15836365  0.53294564     0.11100
C1259       C  0.97157188  0.23169262  0.55400652    -0.52500
C1260       C  0.96904225  0.22159228  0.51772776     0.11600
H1261       H  0.90048574  0.21414473  0.56334957     0.16100
H1262       H  0.94414102  0.16951384  0.98608033     0.01900
H1263       H  0.97585571  0.14993117  0.59204705     0.16400
H1264       H  0.98512741  0.25484214  0.56744788     0.16200
O1265       O  0.71764425  0.44769600  0.50233973    -0.70200
O1266       O  0.74159490  0.05236315  0.97865056    -0.70500
O1267       O  0.72683327  0.48769329  0.94791895    -0.70300
O1268       O  0.73376090  0.00972102  0.54263460    -0.70300
O1269       O  0.79240230  0.47692736  0.54963252    -0.70300
O1270       O  0.77651479  0.47626756  0.95906965    -0.70300
O1271       O  0.78816219  0.02909363  0.98752365    -0.70200
O1272       O  0.76276743  0.42132887  0.50842705    -0.70400
V1273       V  0.72975945  0.99783890  0.49165491     1.35200
V1274       V  0.77930964  0.46674722  0.49792430     1.35200
C1275       C  0.73410087  0.41915277  0.50815607     0.79000
C1276       C  0.76991273  0.05573819  0.97794158     0.79100
C1277       C  0.75010976  0.47681023  0.93639321     0.78900
C1278       C  0.75898655  0.00277534  0.56597466     0.78900
O1279       O  0.00214223  0.47412788  0.55746733    -0.70200
O1280       O  0.95649536  0.48549162  0.93955398    -0.70500
O1281       O  0.99122311  0.43445501  0.98173002    -0.70300
O1282       O  0.98973397  0.04748108  0.51447958    -0.70300
O1283       O  0.50603497  0.04675549  0.51017993    -0.70300
O1284       O  0.50785452  0.45127164  0.98231016    -0.70300
O1285       O  0.49455403  0.01377453  0.95090255    -0.70200
O1286       O  0.54319363  0.49834115  0.55532893    -0.70400
V1287       V  0.98290268  0.48688369  0.50805117     1.35200
V1288       V  0.52256907  0.00237445  0.49569853     1.35200
C1289       C  0.53056412  0.47881078  0.57536893     0.79000
C1290       C  0.00341006  0.01947112  0.93581753     0.79100
C1291       C  0.48738179  0.42657728  0.97790051     0.78900
C1292       C  0.00978657  0.07255860  0.52324695     0.78900
C1293       C  0.71391540  0.27424751  0.58274626     0.88000
C1294       C  0.72881783  0.25010799  0.55755654    -0.52200
C1295       C  0.72407659  0.26258303  0.52199662     0.10900
C1296       C  0.70416652  0.29770009  0.51516500     0.21900
C1297       C  0.72691758  0.31254959  0.58015888    -0.52900
C1298       C  0.72196921  0.32483311  0.54480292     0.11100
C1299       C  0.67935223  0.27639151  0.56278921    -0.52500
C1300       C  0.67396660  0.28864736  0.52727616     0.11600
H1301       H  0.74195167  0.22567703  0.56746028     0.16100
H1302       H  0.69143090  0.31726723  0.97705646     0.01900
H1303       H  0.73972047  0.32815403  0.60406508     0.16400
H1304       H  0.66103553  0.26781300  0.57569188     0.16200
C1305       C  0.53495955  0.28943327  0.91756964     0.88000
C1306       C  0.51790507  0.26715136  0.94123528    -0.52200
C1307       C  0.52327880  0.27860983  0.97754075     0.10900
C1308       C  0.54575258  0.31120078  0.98674501     0.21900
C1309       C  0.52517688  0.32913047  0.92266763    -0.52900
C1310       C  0.53084169  0.34042545  0.95887553     0.11100
C1311       C  0.56972724  0.28768712  0.93842546    -0.52500
C1312       C  0.57533673  0.29918924  0.97469336     0.11600
H1313       H  0.50299663  0.24433573  0.92968551     0.16100
H1314       H  0.55775456  0.30578460  0.52776293     0.01900
H1315       H  0.51475470  0.34674889  0.89971923     0.16400
H1316       H  0.58825944  0.27811929  0.92623481     0.16200
C1317       C  0.54773153  0.43628990  0.67194628     0.88000
C1318       C  0.58206777  0.44081786  0.69296362    -0.52200
C1319       C  0.58708569  0.43522691  0.73044916     0.10900
C1320       C  0.55708141  0.42592998  0.74295123     0.21900
C1321       C  0.53885140  0.39803906  0.68187579    -0.52900
C1322       C  0.54376475  0.39248711  0.71901803     0.11100
C1323       C  0.52924031  0.46251677  0.69135548    -0.52500
C1324       C  0.53388149  0.45709557  0.72863586     0.11600
H1325       H  0.60037608  0.44778871  0.67932631     0.16100
H1326       H  0.56099801  0.42118839  0.77323305     0.01900
H1327       H  0.52912321  0.37717769  0.66127038     0.16400
H1328       H  0.51361749  0.48303608  0.67632928     0.16200
C1329       C  0.71483367  0.44991120  0.83365104     0.88000
C1330       C  0.68064953  0.44896114  0.81153028    -0.52200
C1331       C  0.67646713  0.43568846  0.77595551     0.10900
C1332       C  0.70732265  0.42453290  0.76612121     0.21900
C1333       C  0.72684974  0.41087140  0.83161264    -0.52900
C1334       C  0.72308435  0.39749188  0.79641615     0.11100
C1335       C  0.73171612  0.47229869  0.80983725    -0.52500
C1336       C  0.72795991  0.45899867  0.77424107     0.11600
H1337       H  0.66178808  0.45902052  0.82306961     0.16100
H1338       H  0.70431207  0.41360850  0.73737231     0.03500
H1339       H  0.73794901  0.39533058  0.85595872     0.16400
H1340       H  0.74487177  0.49664228  0.82052850     0.16200
O1341       O  0.72746416  0.23612005  0.69465720    -0.70200
O1342       O  0.73297759  0.21716184  0.79606461    -0.70500
O1343       O  0.71442684  0.27422320  0.75077518    -0.70300
O1344       O  0.74581527  0.17925284  0.73901828    -0.70300
O1345       O  0.79322546  0.20020603  0.75359672    -0.70300
O1346       O  0.76179055  0.29526071  0.76570245    -0.70300
O1347       O  0.78042465  0.23796325  0.80996680    -0.70200
O1348       O  0.77480225  0.25724326  0.70855122    -0.70400
V1349       V  0.73110611  0.22708162  0.74547904     1.35200
V1350       V  0.77662332  0.24733325  0.75914048     1.35200
C1351       C  0.74998540  0.25029086  0.68440791     0.79000
C1352       C  0.75795609  0.22359746  0.82014593     0.79100
C1353       C  0.73273226  0.30092755  0.76001333     0.78900
C1354       C  0.77481226  0.17359653  0.74434276     0.78900
O1355       O  0.52862915  0.20118484  0.70332368    -0.70200
O1356       O  0.55444170  0.23573100  0.80292740    -0.70500
O1357       O  0.53042117  0.17319977  0.77063405    -0.70300
O1358       O  0.55267948  0.26360420  0.73590343    -0.70300
O1359       O  0.99173738  0.30190564  0.73494560    -0.70300
O1360       O  0.95560932  0.20993915  0.74671628    -0.70300
O1361       O  0.97828968  0.26661662  0.79234012    -0.70200
O1362       O  0.96878851  0.24507494  0.68972544    -0.70400
V1363       V  0.54062847  0.21876599  0.75311771     1.35200
V1364       V  0.97447327  0.25549042  0.74122311     1.35200
C1365       C  0.98919146  0.22650045  0.67877133     0.79000
C1366       C  0.53496923  0.24939065  0.81933246     0.79100
C1367       C  0.97285540  0.18269874  0.75764796     0.78900
C1368       C  0.53413860  0.29038028  0.73213349     0.78900
C1369       C  0.79332169  0.02602226  0.66962795     0.88000
C1370       C  0.77531373  0.00311425  0.69179929    -0.52200
C1371       C  0.77736287  0.01608560  0.72713250     0.10900
C1372       C  0.79795009  0.05037165  0.73704653     0.21900
C1373       C  0.78097498  0.06500300  0.67157055    -0.52900
C1374       C  0.78337177  0.07774608  0.70675103     0.11100
C1375       C  0.82702256  0.02710223  0.69347360    -0.52500
C1376       C  0.82954951  0.03997564  0.72898110     0.11600
H1377       H  0.75412296  0.48950334  0.67416801     0.16100
H1378       H  0.79969771  0.06090269  0.76572746     0.01900
H1379       H  0.77087267  0.08101976  0.64721251     0.16400
H1380       H  0.84683321  0.01788883  0.68318714     0.16200
C1381       C  0.95667810  0.03847814  0.83607156     0.88000
C1382       C  0.97431312  0.01528136  0.81291905    -0.52200
C1383       C  0.97022819  0.02639368  0.77710389     0.10900
C1384       C  0.94803279  0.05937796  0.76763320     0.21900
C1385       C  0.96683776  0.07785142  0.83224223    -0.52900
C1386       C  0.96252375  0.08882277  0.79661378     0.11100
C1387       C  0.92234936  0.03679547  0.81433314    -0.52500
C1388       C  0.91773520  0.04766920  0.77811977     0.11600
H1389       H  0.98849094  0.49940724  0.81687076     0.16100
H1390       H  0.94461884  0.06843132  0.73849081     0.01900
H1391       H  0.97768015  0.09519976  0.85579729     0.16400
H1392       H  0.90389883  0.02680364  0.82629140     0.16200
C1393       C  0.85939965  0.04295359  0.75794589    -0.14900
C1394       C  0.88743272  0.04606609  0.74980357    -0.30100
H1395       H  0.85783984  0.04373253  0.78669385     0.14100
H1396       H  0.88854080  0.04814941  0.72099632     0.14700
C1397       C  0.97538633  0.12386218  0.78820786    -0.14900
C1398       C  0.95921605  0.14726880  0.76349176    -0.30100
H1399       H  0.99814971  0.13179868  0.80509029     0.14100
H1400       H  0.93531965  0.14111939  0.74897109     0.14700
C1401       C  0.78696702  0.13687192  0.73964263    -0.14900
C1402       C  0.77090108  0.11376589  0.71389913    -0.30100
H1403       H  0.81018106  0.12962923  0.75551623     0.14100
H1404       H  0.74916226  0.12261223  0.69549460     0.14700
C1405       C  0.74130040  0.47588841  0.74513684    -0.14900
C1406       C  0.76061295  0.00050060  0.75367682    -0.30100
H1407       H  0.73266360  0.46570094  0.71698120     0.14100
H1408       H  0.76857764  0.00929433  0.78236683     0.14700
C1409       C  0.73592217  0.36146448  0.78945032    -0.14900
C1410       C  0.72023626  0.33775202  0.76406271    -0.30100
H1411       H  0.75776747  0.35304015  0.80795674     0.14100
H1412       H  0.69694979  0.34451762  0.74802477     0.14700
C1413       C  0.51758539  0.47738166  0.75367436    -0.14900
C1414       C  0.98591894  0.00959883  0.74956542    -0.30100
H1415       H  0.52587111  0.47174275  0.78293949     0.14100
H1416       H  0.97705355  0.01760236  0.72100685     0.14700
C1417       C  0.53629567  0.35751677  0.73420162    -0.14900
C1418       C  0.54342146  0.32560044  0.71994857    -0.30100
H1419       H  0.52533652  0.35802686  0.75749306     0.14100
H1420       H  0.55719407  0.32526778  0.69926074     0.14700
C1421       C  0.64570125  0.43386194  0.74827618    -0.14900
C1422       C  0.61801003  0.43704254  0.75757422    -0.30100
H1423       H  0.64614583  0.42890971  0.71950419     0.14100
H1424       H  0.61744404  0.43935083  0.78655339     0.14700
C1425       C  0.54542455  0.26143572  0.85845827    -0.14900
C1426       C  0.52596304  0.27705710  0.87712102    -0.30100
H1427       H  0.56968771  0.25675103  0.87164220     0.14100
H1428       H  0.50158045  0.28048099  0.86291895     0.14700
C1429       C  0.74695615  0.25966097  0.64536777    -0.14900
C1430       C  0.71874107  0.26091529  0.62179238    -0.30100
H1431       H  0.76753807  0.26801781  0.63643555     0.14100
H1432       H  0.69825190  0.25361731  0.63149960     0.14700
C1433       C  0.60654706  0.29984543  0.00116404    -0.14900
C1434       C  0.64247060  0.29085837  0.50161637    -0.30100
H1435       H  0.60664085  0.30290838  0.03030146     0.14100
H1436       H  0.64181934  0.29539219  0.47261825     0.14700
C1437       C  0.49454520  0.38884178  0.96803937    -0.14900
C1438       C  0.52394595  0.37769616  0.97019056    -0.30100
H1439       H  0.47537641  0.36980344  0.95875186     0.14100
H1440       H  0.54347722  0.39576514  0.98126575     0.14700
C1441       C  0.96365821  0.02686249  0.87612802    -0.14900
C1442       C  0.99320985  0.02911983  0.89657971    -0.30100
H1443       H  0.94507614  0.01735126  0.88818924     0.14100
H1444       H  0.01116523  0.03927851  0.88378231     0.14700
C1445       C  0.54026473  0.44130479  0.63051311    -0.14900
C1446       C  0.54590213  0.47228192  0.61454735    -0.30100
H1447       H  0.52723189  0.41979256  0.61301147     0.14100
H1448       H  0.56008740  0.49364898  0.63083362     0.14700
C1449       C  0.71985829  0.38423294  0.51424562    -0.14900
C1450       C  0.73622478  0.35905217  0.53652824    -0.30100
H1451       H  0.76011734  0.38326783  0.05492775     0.14100
H1452       H  0.76010341  0.36483366  0.55140348     0.14700
C1453       C  0.76247838  0.01253411  0.60541802    -0.14900
C1454       C  0.79024448  0.01242608  0.63023797    -0.30100
H1455       H  0.80041959  0.48196047  0.62351105     0.14100
H1456       H  0.81108620  0.00391951  0.62162933     0.14700
C1457       C  0.71881210  0.46417358  0.87295090    -0.14900
C1458       C  0.74673222  0.46493288  0.89743791    -0.30100
H1459       H  0.69815609  0.47295260  0.88181212     0.14100
H1460       H  0.76742236  0.45590941  0.88878718     0.14700
C1461       C  0.98530830  0.21640555  0.63939822    -0.14900
C1462       C  0.95749047  0.21767538  0.61488241    -0.30100
H1463       H  0.00564597  0.20656219  0.63044902     0.14100
H1464       H  0.93692153  0.22629085  0.62406928     0.14700
C1465       C  0.50880111  0.26238330  0.00592307    -0.14900
C1466       C  0.98646917  0.23898635  0.49276230    -0.30100
H1467       H  0.52331348  0.25501700  0.53889601     0.14100
H1468       H  0.97595749  0.21952102  0.96821492     0.14700
C1469       C  0.97226392  0.12238951  0.52093021    -0.14900
C1470       C  0.00091703  0.10888722  0.53455916    -0.30100
H1471       H  0.95576546  0.10768016  0.49920672     0.14100
H1472       H  0.01833684  0.12523220  0.55360737     0.14700
C1473       C  0.76098822  0.21383049  0.85906832    -0.14900
C1474       C  0.78893615  0.21350191  0.88334386    -0.30100
H1475       H  0.74022625  0.20579330  0.86782852     0.14100
H1476       H  0.80972975  0.22077643  0.87424471     0.14700
C1477       C  0.73768610  0.24581223  0.49259998    -0.14900
C1478       C  0.76025635  0.23916976  0.00516010    -0.30100
H1479       H  0.72820955  0.25486713  0.46449581     0.14100
H1480       H  0.77107097  0.21283561  0.52784992     0.14700
C1481       C  0.77310828  0.12224369  0.97750313    -0.14900
C1482       C  0.78139931  0.08978898  0.96578627    -0.30100
H1483       H  0.75913812  0.12366486  0.99795621     0.14100
H1484       H  0.79802206  0.08825007  0.94842579     0.14700
C1485       C  0.86013185  0.19488278  0.01041875    -0.14900
C1486       C  0.88650672  0.19283734  0.48765205    -0.30100
H1487       H  0.85959939  0.19613138  0.03946479     0.14100
H1488       H  0.88740057  0.19358864  0.45873811     0.14700
C1489       C  0.79087444  0.68834302  0.42234476     0.88000
C1490       C  0.82547231  0.69445132  0.44176093    -0.52200
C1491       C  0.83222140  0.68774383  0.47914425     0.10900
C1492       C  0.80390765  0.67516512  0.49312012     0.21900
C1493       C  0.78424483  0.64886759  0.43162957    -0.52900
C1494       C  0.79106438  0.64202112  0.46867365     0.11100
C1495       C  0.77253476  0.71231477  0.44435849    -0.52500
C1496       C  0.77940540  0.70532771  0.48163579     0.11600
H1497       H  0.84253525  0.70384489  0.42729804     0.16100
H1498       H  0.81601293  0.67781376  0.03197603     0.01900
H1499       H  0.77408829  0.62838201  0.41079937     0.16400
H1500       H  0.75559911  0.73250863  0.43118365     0.16200
C1501       C  0.97049146  0.69899461  0.09495977     0.88000
C1502       C  0.93632140  0.70150933  0.07347944    -0.52200
C1503       C  0.93116433  0.69081679  0.03710923     0.10900
C1504       C  0.96090458  0.67844042  0.02572213     0.21900
C1505       C  0.98024942  0.65935913  0.08973078    -0.52900
C1506       C  0.97508972  0.64854353  0.05341403     0.11100
C1507       C  0.98839183  0.72175922  0.07258049    -0.52500
C1508       C  0.98346374  0.71097031  0.03605527     0.11600
H1509       H  0.91821914  0.71207517  0.08603793     0.16100
H1510       H  0.94967056  0.68362149  0.48547370     0.01900
H1511       H  0.99064090  0.64163726  0.11260418     0.16400
H1512       H  0.00364280  0.74392556  0.08513654     0.16200
O1513       O  0.71161729  0.96352229  0.00808350    -0.70200
O1514       O  0.75313669  0.53828657  0.48650727    -0.70500
O1515       O  0.72383344  0.98671280  0.44038754    -0.70300
O1516       O  0.73616685  0.51948696  0.04805416    -0.70300
O1517       O  0.78185202  0.00226578  0.05271862    -0.70300
O1518       O  0.77090012  0.96467283  0.45208963    -0.70300
O1519       O  0.79722415  0.51134844  0.48709224    -0.70200
O1520       O  0.75823922  0.94032660  0.01745015    -0.70400
V1521       V  0.73241418  0.50330581  0.99807416     1.35200
V1522       V  0.77237922  0.98523879  0.00256910     1.35200
C1523       C  0.72991039  0.93705203  0.01823102     0.79000
C1524       C  0.78088543  0.54015854  0.48317370     0.79100
C1525       C  0.74562000  0.97168640  0.42882876     0.78900
C1526       C  0.76265880  0.51940631  0.07061764     0.78900
O1527       O  0.01586586  0.98169697  0.05496057    -0.70200
O1528       O  0.99018580  0.01009362  0.45183338    -0.70500
O1529       O  0.01399063  0.95187211  0.49270665    -0.70300
O1530       O  0.95873368  0.52749576  0.00075778    -0.70300
O1531       O  0.48956598  0.54859802  0.00619616    -0.70300
O1532       O  0.54058676  0.95905601  0.48077112    -0.70300
O1533       O  0.50265265  0.51295751  0.45427106    -0.70200
O1534       O  0.53267872  0.99807190  0.05237322    -0.70400
V1535       V  0.00166714  0.99286887  0.00399477     1.35200
V1536       V  0.49763169  0.49961462  0.99411010     1.35200
C1537       C  0.51896842  0.97947925  0.07198349     0.79000
C1538       C  0.97652799  0.51460553  0.43813420     0.79100
C1539       C  0.52648601  0.92905441  0.48026608     0.78900
C1540       C  0.97648490  0.55506208  0.00637993     0.78900
C1541       C  0.71587731  0.79482025  0.08863633     0.88000
C1542       C  0.73443587  0.76836833  0.06937626    -0.52200
C1543       C  0.72929623  0.77325191  0.03189803     0.10900
C1544       C  0.70574262  0.80365395  0.01724794     0.21900
C1545       C  0.72426854  0.83300569  0.07756288    -0.52900
C1546       C  0.71906204  0.83747593  0.04020004     0.11100
C1547       C  0.68144984  0.78959108  0.06791915    -0.52500
C1548       C  0.67610725  0.79425365  0.03021032     0.11600
H1549       H  0.75056657  0.74835246  0.08448197     0.16100
H1550       H  0.70495248  0.81115467  0.49420172     0.01900
H1551       H  0.73440595  0.85429042  0.09747340     0.16400
H1552       H  0.66335863  0.78282410  0.08195224     0.16200
C1553       C  0.55308523  0.77773651  0.43322335     0.88000
C1554       C  0.53397064  0.75491363  0.45413279    -0.52200
C1555       C  0.53718505  0.76557545  0.49033014     0.10900
C1556       C  0.55995079  0.79763897  0.50233783     0.21900
C1557       C  0.54357910  0.81755021  0.43831418    -0.52900
C1558       C  0.54693474  0.82784555  0.47461908     0.11100
C1559       C  0.58679242  0.77501866  0.45620387    -0.52500
C1560       C  0.59064777  0.78588530  0.49246697     0.11600
H1561       H  0.51921708  0.73251697  0.44101204     0.16100
H1562       H  0.56152145  0.81684491  0.02624218     0.01900
H1563       H  0.53388817  0.83539081  0.41529147     0.16400
H1564       H  0.60576871  0.76536990  0.44457981     0.16200
C1565       C  0.53927975  0.93872581  0.17004875     0.88000
C1566       C  0.57443742  0.94388441  0.18714839    -0.52200
C1567       C  0.58252031  0.93988304  0.22497911     0.10900
C1568       C  0.55472629  0.93076024  0.24168685     0.21900
C1569       C  0.53165238  0.90095375  0.18266703    -0.52900
C1570       C  0.53980590  0.89685142  0.22011299     0.11100
C1571       C  0.52294541  0.96569961  0.19136158    -0.52500
C1572       C  0.53079352  0.96131567  0.22903223     0.11600
H1573       H  0.59093376  0.95043006  0.17076748     0.16100
H1574       H  0.56103330  0.92701153  0.27224951     0.01900
H1575       H  0.51966694  0.87976812  0.16383241     0.16400
H1576       H  0.50643737  0.98591324  0.17735760     0.16200
C1577       C  0.70995479  0.95542764  0.32401417     0.88000
C1578       C  0.67637061  0.96005959  0.30111340    -0.52200
C1579       C  0.67201162  0.94987924  0.26454678     0.10900
C1580       C  0.70231830  0.93723613  0.25430975     0.21900
C1581       C  0.71802241  0.91538164  0.31769606    -0.52900
C1582       C  0.71428296  0.90594743  0.28115124     0.11100
C1583       C  0.72981817  0.97792543  0.30377514    -0.52500
C1584       C  0.72602565  0.96838076  0.26712774     0.11600
H1585       H  0.65776311  0.97002000  0.31320155     0.16100
H1586       H  0.69910120  0.92918511  0.22462527     0.03500
H1587       H  0.72690000  0.89659546  0.34013721     0.16400
H1588       H  0.74527135  0.99940402  0.31767145     0.16200
O1589       O  0.71412019  0.73781146  0.20650708    -0.70200
O1590       O  0.74892461  0.72050502  0.30898742    -0.70500
O1591       O  0.71444299  0.77436939  0.27081617    -0.70300
O1592       O  0.74872592  0.68468539  0.24543668    -0.70300
O1593       O  0.79055284  0.71329349  0.24067663    -0.70300
O1594       O  0.75680014  0.80244631  0.26708872    -0.70300
O1595       O  0.79124577  0.74886839  0.30571205    -0.70200
O1596       O  0.75599252  0.76720376  0.20335668    -0.70400
V1597       V  0.73232870  0.72998047  0.25786333     1.35200
V1598       V  0.77288368  0.75730512  0.25438711     1.35200
C1599       C  0.72917800  0.75536968  0.18746017     0.79000
C1600       C  0.77596231  0.73164641  0.32480278     0.79100
C1601       C  0.72985439  0.80367893  0.27312138     0.78900
C1602       C  0.77528292  0.68392136  0.23816192     0.78900
O1603       O  0.52661310  0.71344809  0.21681648    -0.70200
O1604       O  0.53798253  0.73978157  0.31843917    -0.70500
O1605       O  0.51381645  0.68147824  0.27614741    -0.70300
O1606       O  0.55023500  0.77135443  0.25861461    -0.70300
O1607       O  0.00434391  0.80235055  0.24198897    -0.70300
O1608       O  0.97100766  0.71561338  0.27096547    -0.70300
O1609       O  0.99244212  0.77821658  0.30493544    -0.70200
O1610       O  0.98297537  0.73947102  0.20753714    -0.70400
V1611       V  0.53127695  0.72692679  0.26739373     1.35200
V1612       V  0.98855066  0.75846310  0.25650477     1.35200
C1613       C  0.00568624  0.72446809  0.19773675     0.79000
C1614       C  0.51659776  0.75587981  0.32990765     0.79100
C1615       C  0.98826440  0.68815210  0.28037127     0.78900
C1616       C  0.53345251  0.79952373  0.25083768     0.78900
C1617       C  0.79690608  0.53696271  0.17583314     0.88000
C1618       C  0.77716504  0.51201623  0.19404544    -0.52200
C1619       C  0.78033607  0.51909948  0.23108674     0.10900
C1620       C  0.80338920  0.55014892  0.24645954     0.21900
C1621       C  0.78784504  0.57607056  0.18469116    -0.52900
C1622       C  0.79100771  0.58281807  0.22178230     0.11100
C1623       C  0.83043148  0.53226138  0.19903544    -0.52500
C1624       C  0.83412147  0.53962771  0.23614037     0.11600
H1625       H  0.76467386  0.99399873  0.17567522     0.16100
H1626       H  0.80607739  0.55603616  0.27654358     0.01900
H1627       H  0.77874883  0.59607914  0.16353637     0.16400
H1628       H  0.84943730  0.52390740  0.18683575     0.16200
C1629       C  0.96613275  0.54138797  0.33462067     0.88000
C1630       C  0.98218450  0.51681422  0.31068927    -0.52200
C1631       C  0.97464930  0.52510027  0.27380756     0.10900
C1632       C  0.95180520  0.55711351  0.26441966     0.21900
C1633       C  0.97455251  0.58042519  0.32645828    -0.52900
C1634       C  0.96734217  0.58854531  0.28968117     0.11100
C1635       C  0.93085071  0.53798176  0.31632566    -0.52500
C1636       C  0.92344290  0.54631877  0.27926695     0.11600
H1637       H  0.99993458  0.99286378  0.32616232     0.16100
H1638       H  0.94591622  0.56414062  0.23450593     0.01900
H1639       H  0.98675192  0.59932471  0.34783746     0.16400
H1640       H  0.91356733  0.52960034  0.33083729     0.16200
C1641       C  0.86485491  0.53952882  0.26379716    -0.14900
C1642       C  0.89185420  0.54482720  0.25367651    -0.30100
H1643       H  0.86481696  0.53714147  0.29288202     0.14100
H1644       H  0.89112666  0.54968415  0.22472710     0.14700
C1645       C  0.97720436  0.62269940  0.27527165    -0.14900
C1646       C  0.97547221  0.65487422  0.29223664    -0.30100
H1647       H  0.98596943  0.62130283  0.25029678     0.14100
H1648       H  0.96412819  0.65694554  0.31514798     0.14700
C1649       C  0.78774450  0.64995025  0.22551372    -0.14900
C1650       C  0.78079085  0.61712795  0.23680655    -0.30100
H1651       H  0.80306014  0.65192711  0.20665052     0.14100
H1652       H  0.76788748  0.61523050  0.25823943     0.14700
C1653       C  0.74299395  0.98513538  0.24129968    -0.14900
C1654       C  0.76278346  0.50062782  0.25510432    -0.30100
H1655       H  0.73497713  0.97735563  0.21230880     0.14100
H1656       H  0.77143718  0.50522072  0.28466371     0.14700
C1657       C  0.72360615  0.87003284  0.26863366    -0.14900
C1658       C  0.71711985  0.83854707  0.28324424    -0.30100
H1659       H  0.73598543  0.86959467  0.24658817     0.14100
H1660       H  0.70228888  0.83845252  0.30278001     0.14700
C1661       C  0.51701339  0.98199773  0.25606111    -0.14900
C1662       C  0.98691201  0.50666664  0.24430973    -0.30100
H1663       H  0.52844017  0.97916798  0.28518994     0.14100
H1664       H  0.97631521  0.51501371  0.21624855     0.14700
C1665       C  0.53007479  0.86481572  0.23769242    -0.14900
C1666       C  0.54683157  0.83393374  0.24183015    -0.30100
H1667       H  0.50714463  0.86566535  0.24359250     0.14100
H1668       H  0.56980404  0.83345392  0.23597288     0.14700
C1669       C  0.64085146  0.94803394  0.23784647    -0.14900
C1670       C  0.61437646  0.94384412  0.24946355    -0.30100
H1671       H  0.64017800  0.94769119  0.20843907     0.14100
H1672       H  0.61580717  0.94172140  0.27893409     0.14700
C1673       C  0.52093139  0.76687556  0.36912550    -0.14900
C1674       C  0.54896488  0.76587328  0.39323531    -0.30100
H1675       H  0.50079946  0.77702933  0.37830560     0.14100
H1676       H  0.56924589  0.75640113  0.38393418     0.14700
C1677       C  0.71626391  0.76089434  0.14730422    -0.14900
C1678       C  0.72361260  0.79059238  0.13042275    -0.30100
H1679       H  0.70127072  0.74001980  0.13128899     0.14100
H1680       H  0.73726030  0.81198072  0.14743637     0.14700
C1681       C  0.62137745  0.78744021  0.51976830    -0.14900
C1682       C  0.64517940  0.79187886  0.00304808    -0.30100
H1683       H  0.62115597  0.78735475  0.54891365     0.14100
H1684       H  0.64551897  0.79072959  0.97393763     0.14700
C1685       C  0.54014224  0.89476883  0.47021509    -0.14900
C1686       C  0.53589069  0.86324814  0.48625528    -0.30100
H1687       H  0.55421442  0.89543916  0.44989046     0.14100
H1688       H  0.52434479  0.86332089  0.50904522     0.14700
C1689       C  0.97824159  0.53343744  0.37548292    -0.14900
C1690       C  0.96141556  0.52176132  0.39879313    -0.30100
H1691       H  0.00316829  0.53748255  0.38622362     0.14100
H1692       H  0.93670444  0.51633381  0.38915067     0.14700
C1693       C  0.52850013  0.94285976  0.12847821    -0.14900
C1694       C  0.53411626  0.97303205  0.11124995    -0.30100
H1695       H  0.51418263  0.92145304  0.11235483     0.14100
H1696       H  0.54964843  0.99384840  0.12654087     0.14700
C1697       C  0.71861253  0.90370644  0.03201208    -0.14900
C1698       C  0.72824329  0.87065433  0.02361544    -0.30100
H1699       H  0.69576649  0.88090481  0.50107439     0.14100
H1700       H  0.74267815  0.86772407  0.00377750     0.14700
C1701       C  0.76599026  0.53049875  0.10987559    -0.14900
C1702       C  0.79357571  0.52883191  0.13494049    -0.30100
H1703       H  0.74748570  0.04275027  0.11378697     0.14100
H1704       H  0.81423270  0.52033877  0.12589234     0.14700
C1705       C  0.71420063  0.96595118  0.36443799    -0.14900
C1706       C  0.74176079  0.96231604  0.38918215    -0.30100
H1707       H  0.69413732  0.97626032  0.37365161     0.14100
H1708       H  0.76173388  0.95150390  0.38014603     0.14700
C1709       C  0.00260713  0.71125036  0.15932041    -0.14900
C1710       C  0.97484414  0.71137490  0.13478799    -0.30100
H1711       H  0.02316733  0.70124924  0.15102276     0.14100
H1712       H  0.95443657  0.72093548  0.14373648     0.14700
C1713       C  0.51978670  0.74951417  0.51595578    -0.14900
C1714       C  0.99829550  0.72760328  0.00820974    -0.30100
H1715       H  0.52320802  0.77295957  0.03967738     0.14100
H1716       H  0.98182075  0.73555052  0.47365296     0.14700
C1717       C  0.98497372  0.61242292  0.04214169    -0.14900
C1718       C  0.96563561  0.59056159  0.01781391    -0.30100
H1719       H  0.00834562  0.60304824  0.05529365     0.14100
H1720       H  0.94135161  0.59826179  0.00738308     0.14700
C1721       C  0.78897437  0.72521030  0.36482143    -0.14900
C1722       C  0.78170581  0.69487874  0.38086796    -0.30100
H1723       H  0.80446487  0.74544891  0.38120952     0.14100
H1724       H  0.76765740  0.67413404  0.36328824     0.14700
C1725       C  0.74579180  0.75397560  0.00664989    -0.14900
C1726       C  0.76544128  0.72368104  0.50997285    -0.30100
H1727       H  0.73608813  0.75771182  0.97722134     0.14100
H1728       H  0.78176186  0.72989471  0.04735769     0.14700
C1729       C  0.78334307  0.60713135  0.48376827    -0.14900
C1730       C  0.79323033  0.57487897  0.47314893    -0.30100
H1731       H  0.76874343  0.60810871  0.50352041     0.14100
H1732       H  0.80982233  0.57403833  0.45575982     0.14700
C1733       C  0.86300540  0.69277161  0.50564050    -0.14900
C1734       C  0.90049478  0.69284658  0.01007758    -0.30100
H1735       H  0.86307035  0.69055595  0.53475888     0.14100
H1736       H  0.90042538  0.68953056  0.98093834     0.14700
C1737       C  0.80512877  0.70625773  0.93406931     0.88000
C1738       C  0.83885082  0.70969268  0.95708786    -0.52200
C1739       C  0.84289445  0.69896588  0.99300289     0.10900
C1740       C  0.81274361  0.68646066  0.00270927     0.21900
C1741       C  0.79626264  0.66624536  0.93815288    -0.52900
C1742       C  0.80054185  0.65594304  0.97430143     0.11100
C1743       C  0.78571503  0.72861334  0.95567976    -0.52500
C1744       C  0.78925664  0.71795173  0.99166879     0.11600
H1745       H  0.85774789  0.71954111  0.94577919     0.16100
H1746       H  0.80939625  0.66923545  0.52328317     0.01900
H1747       H  0.78840646  0.64757126  0.91478177     0.16400
H1748       H  0.77076557  0.75091532  0.94324070     0.16200
C1749       C  0.95672881  0.70964258  0.58436477     0.88000
C1750       C  0.92320345  0.71110873  0.56050760    -0.52200
C1751       C  0.92038868  0.70115696  0.52409427     0.10900
C1752       C  0.95174864  0.69154162  0.51501624     0.21900
C1753       C  0.96784532  0.67046336  0.57867230    -0.52900
C1754       C  0.96544103  0.66122980  0.54220395     0.11100
C1755       C  0.97544057  0.73423865  0.56443904    -0.52500
C1756       C  0.97307274  0.72456614  0.52809890     0.11600
H1757       H  0.90362426  0.71925739  0.57175956     0.16100
H1758       H  0.95689730  0.66955297  0.99617733     0.01900
H1759       H  0.97763455  0.65228872  0.60134868     0.16400
H1760       H  0.98922439  0.75707866  0.57825015     0.16200
O1761       O  0.71295168  0.95145936  0.49873079    -0.70200
O1762       O  0.73831249  0.55170614  0.98367684    -0.70500
O1763       O  0.71824056  0.99039669  0.94285859    -0.70300
O1764       O  0.74735044  0.50238043  0.54688540    -0.70300
O1765       O  0.78087849  0.98778122  0.55456997    -0.70300
O1766       O  0.76494153  0.96741028  0.95304114    -0.70300
O1767       O  0.78812943  0.54092836  0.99490147    -0.70200
O1768       O  0.76012216  0.92963734  0.51119789    -0.70400
V1769       V  0.73643945  0.49244626  0.49465433     1.35200
V1770       V  0.77498977  0.97661416  0.50319836     1.35200
C1771       C  0.73125330  0.92474446  0.50791029     0.79000
C1772       C  0.76546773  0.56259670  0.98412225     0.79100
C1773       C  0.73896505  0.97331708  0.93086813     0.78900
C1774       C  0.77401715  0.49301756  0.56594668     0.78900
O1775       O  0.01371767  0.98939384  0.55519958    -0.70200
O1776       O  0.98582249  0.00343576  0.95284144    -0.70500
O1777       O  0.01216068  0.94483571  0.99126495    -0.70300
O1778       O  0.96704555  0.53024492  0.52599859    -0.70300
O1779       O  0.50552340  0.54989744  0.51779084    -0.70300
O1780       O  0.52632355  0.95809681  0.98912771    -0.70300
O1781       O  0.48659956  0.51078608  0.94279798    -0.70200
O1782       O  0.54159411  0.99254844  0.54637894    -0.70400
V1783       V  0.00276185  0.00006940  0.50361448     1.35200
V1784       V  0.52210172  0.50508868  0.50472505     1.35200
C1785       C  0.52606853  0.97629872  0.56582206     0.79000
C1786       C  0.96974831  0.50464739  0.91984251     0.79100
C1787       C  0.50675091  0.93219899  0.98295723     0.78900
C1788       C  0.98192395  0.55981453  0.52721183     0.78900
C1789       C  0.72017360  0.78254095  0.59252596     0.88000
C1790       C  0.73669759  0.75862153  0.56870170    -0.52200
C1791       C  0.73118830  0.76910031  0.53229937     0.10900
C1792       C  0.70940028  0.80251791  0.52357985     0.21900
C1793       C  0.73071310  0.82155968  0.58777064    -0.52900
C1794       C  0.72512716  0.83209939  0.55173443     0.11100
C1795       C  0.68554926  0.78129986  0.57207633    -0.52500
C1796       C  0.67975946  0.79173771  0.53585751     0.11600
H1797       H  0.75116719  0.73564532  0.58016015     0.16100
H1798       H  0.70159854  0.80779590  0.98683788     0.01900
H1799       H  0.74213120  0.83911116  0.61085359     0.16400
H1800       H  0.66755595  0.77196327  0.58513754     0.16200
C1801       C  0.54720658  0.79017908  0.92650840     0.88000
C1802       C  0.52815964  0.76807612  0.94816704    -0.52200
C1803       C  0.53321008  0.77777482  0.98489286     0.10900
C1804       C  0.55732976  0.80871785  0.99646748     0.21900
C1805       C  0.53954810  0.83035986  0.93326014    -0.52900
C1806       C  0.54491472  0.84010153  0.96995943     0.11100
C1807       C  0.58139904  0.78531387  0.94816458    -0.52500
C1808       C  0.58678967  0.79519560  0.98503710     0.11600
H1809       H  0.51198330  0.74700140  0.93492886     0.16100
H1810       H  0.56281590  0.80631812  0.53180565     0.01900
H1811       H  0.53099663  0.84943300  0.91098733     0.16400
H1812       H  0.59935191  0.77484988  0.93528259     0.16200
C1813       C  0.53350096  0.94706222  0.66825008     0.88000
C1814       C  0.56832102  0.95263515  0.68771367    -0.52200
C1815       C  0.57522475  0.94463341  0.72475451     0.10900
C1816       C  0.54699026  0.93209870  0.73870942     0.21900
C1817       C  0.52650682  0.90745329  0.67654860    -0.52900
C1818       C  0.53370076  0.89970613  0.71345620     0.11100
C1819       C  0.51558994  0.97034824  0.69102666    -0.52500
C1820       C  0.52240770  0.96238122  0.72800754     0.11600
H1821       H  0.58585372  0.96191172  0.67397826     0.16100
H1822       H  0.55256299  0.92542934  0.76870723     0.01900
H1823       H  0.51666004  0.88735590  0.65516591     0.16400
H1824       H  0.49894222  0.99106281  0.67844133     0.16200
C1825       C  0.70235380  0.95246608  0.82697992     0.88000
C1826       C  0.66884155  0.95715757  0.80392990    -0.52200
C1827       C  0.66439395  0.94614397  0.76761663     0.10900
C1828       C  0.69437330  0.93200617  0.75778640     0.21900
C1829       C  0.71027662  0.91212638  0.82186114    -0.52900
C1830       C  0.70624790  0.90147295  0.78557377     0.11100
C1831       C  0.72244141  0.97370442  0.80599900    -0.52500
C1832       C  0.71853867  0.96284809  0.76963736     0.11600
H1833       H  0.65049548  0.96848422  0.81564678     0.16100
H1834       H  0.69102029  0.92304460  0.72833427     0.03500
H1835       H  0.71847692  0.89372435  0.84483006     0.16400
H1836       H  0.73817294  0.99520155  0.81922453     0.16200
O1837       O  0.73517618  0.75038812  0.70727694    -0.70200
O1838       O  0.74402642  0.72651032  0.80830268    -0.70500
O1839       O  0.72832041  0.78719346  0.76786055    -0.70300
O1840       O  0.75105459  0.69009206  0.74750317    -0.70300
O1841       O  0.79974351  0.70626192  0.75888428    -0.70300
O1842       O  0.77724349  0.80262491  0.78153138    -0.70300
O1843       O  0.79303259  0.74134798  0.82013944    -0.70200
O1844       O  0.78364699  0.76739555  0.71915404    -0.70400
V1845       V  0.74060242  0.73887754  0.75798263     1.35200
V1846       V  0.78745885  0.75418864  0.76960738     1.35200
C1847       C  0.75774790  0.76302177  0.69594107     0.79000
C1848       C  0.77013545  0.72922528  0.83127313     0.79100
C1849       C  0.74904294  0.81129968  0.77865891     0.78900
C1850       C  0.77928774  0.68168645  0.74980245     0.78900
O1851       O  0.49251961  0.72837539  0.70487811    -0.70200
O1852       O  0.52054348  0.75413121  0.80774929    -0.70500
O1853       O  0.49708765  0.69310812  0.76855822    -0.70300
O1854       O  0.51601554  0.78897070  0.74316412    -0.70300
O1855       O  0.99368620  0.80766761  0.73982260    -0.70300
O1856       O  0.95954563  0.71909438  0.76319012    -0.70300
O1857       O  0.98418221  0.77835572  0.80228948    -0.70200
O1858       O  0.96947876  0.74764022  0.70063224    -0.70400
V1859       V  0.50574548  0.74145317  0.75619895     1.35200
V1860       V  0.97756422  0.76278151  0.75162675     1.35200
C1861       C  0.99122083  0.73281382  0.68858526     0.79000
C1862       C  0.50215675  0.77027711  0.82431539     0.79100
C1863       C  0.97602069  0.69061126  0.76878752     0.78900
C1864       C  0.49464747  0.81267206  0.73493314     0.78900
C1865       C  0.78284089  0.53865211  0.66303811     0.88000
C1866       C  0.76839319  0.51259705  0.68636499    -0.52200
C1867       C  0.77481860  0.52184477  0.72339469     0.10900
C1868       C  0.79542351  0.55608339  0.73335998     0.21900
C1869       C  0.77105969  0.57654279  0.67126779    -0.52900
C1870       C  0.77785588  0.58585305  0.70783884     0.11100
C1871       C  0.81814438  0.53893407  0.68179999    -0.52500
C1872       C  0.82472364  0.54770767  0.71904968     0.11600
H1873       H  0.76208159  0.97909429  0.68010716     0.16100
H1874       H  0.80046766  0.56383358  0.76328665     0.01900
H1875       H  0.75849758  0.59474090  0.64992962     0.16400
H1876       H  0.83583560  0.53198593  0.66698264     0.16200
C1877       C  0.95367267  0.54529198  0.82173368     0.88000
C1878       C  0.97271347  0.51995559  0.80214415    -0.52200
C1879       C  0.96827113  0.52616482  0.76494137     0.10900
C1880       C  0.94461817  0.55680075  0.75080207     0.21900
C1881       C  0.96205303  0.58386063  0.81236302    -0.52900
C1882       C  0.95746132  0.58999312  0.77537829     0.11100
C1883       C  0.91950766  0.54021348  0.80021415    -0.52500
C1884       C  0.91459772  0.54637695  0.76273175     0.11600
H1885       H  0.98878768  0.99230316  0.82446677     0.16100
H1886       H  0.94094573  0.56202516  0.72063792     0.01900
H1887       H  0.97193743  0.60432919  0.83334125     0.16400
H1888       H  0.90123407  0.53246907  0.81359629     0.16200
C1889       C  0.85625153  0.54811824  0.74529226    -0.14900
C1890       C  0.88360366  0.54463701  0.73537692    -0.30100
H1891       H  0.85658797  0.55248802  0.77435987     0.14100
H1892       H  0.88370678  0.54238972  0.70623731     0.14700
C1893       C  0.96697072  0.62452742  0.76136459    -0.14900
C1894       C  0.96239423  0.65648515  0.77736520    -0.30100
H1895       H  0.97859351  0.62356444  0.73865147     0.14100
H1896       H  0.94821183  0.65768718  0.79761752     0.14700
C1897       C  0.78840124  0.64422672  0.74182204    -0.14900
C1898       C  0.76796142  0.62129057  0.72051580    -0.30100
H1899       H  0.81276009  0.63627905  0.75111513     0.14100
H1900       H  0.74433923  0.63048905  0.70827975     0.14700
C1901       C  0.73592382  0.97786848  0.74340429    -0.14900
C1902       C  0.76274247  0.50279162  0.75224943    -0.30100
H1903       H  0.72780534  0.96956448  0.71455813     0.14100
H1904       H  0.77166926  0.51248270  0.78052000     0.14700
C1905       C  0.71343655  0.86420665  0.77408058    -0.14900
C1906       C  0.74103150  0.84848472  0.78897144    -0.30100
H1907       H  0.69670297  0.85055805  0.75177433     0.14100
H1908       H  0.75873180  0.86386838  0.80867177     0.14700
C1909       C  0.50753837  0.97980155  0.75595520    -0.14900
C1910       C  0.98523706  0.50705661  0.73995691    -0.30100
H1911       H  0.51849141  0.97468753  0.78481831     0.14100
H1912       H  0.97515276  0.50902519  0.71040023     0.14700
C1913       C  0.52880053  0.86360642  0.72805930    -0.14900
C1914       C  0.50040827  0.84842193  0.72041237    -0.30100
H1915       H  0.54818068  0.85074319  0.74734714     0.14100
H1916       H  0.48063389  0.86319698  0.70385464     0.14700
C1917       C  0.63366551  0.94657088  0.74014778    -0.14900
C1918       C  0.60649223  0.94700452  0.75064137    -0.30100
H1919       H  0.63362839  0.94406137  0.71095386     0.14100
H1920       H  0.60674157  0.94643416  0.77991534     0.14700
C1921       C  0.51156082  0.78217077  0.86375275    -0.14900
C1922       C  0.54056404  0.77915135  0.88563487    -0.30100
H1923       H  0.49332421  0.79362977  0.87569263     0.14100
H1924       H  0.55925472  0.76807758  0.87428280     0.14700
C1925       C  0.75383469  0.77263029  0.65655265    -0.14900
C1926       C  0.72566704  0.77117184  0.63255565    -0.30100
H1927       H  0.77399043  0.78189244  0.64727956     0.14100
H1928       H  0.70561687  0.76244846  0.64237942     0.14700
C1929       C  0.61761303  0.79412043  0.01254303    -0.14900
C1930       C  0.64855461  0.79088078  0.50946866    -0.30100
H1931       H  0.61732773  0.79769180  0.04152750     0.14100
H1932       H  0.64824500  0.79391824  0.48035351     0.14700
C1933       C  0.51386198  0.89640298  0.96824330    -0.14900
C1934       C  0.53976081  0.87748970  0.98335086    -0.30100
H1935       H  0.49588368  0.88372709  0.94655351     0.14100
H1936       H  0.55609810  0.88823251  0.00784550     0.14700
C1937       C  0.96115522  0.54040221  0.86334949    -0.14900
C1938       C  0.95551716  0.50983606  0.87996711    -0.30100
H1939       H  0.97380983  0.56223831  0.88072108     0.14100
H1940       H  0.94159864  0.48809954  0.86398590     0.14700
C1941       C  0.52253096  0.95485368  0.62716831    -0.14900
C1942       C  0.53969450  0.96954209  0.60560457    -0.30100
H1943       H  0.49819648  0.94847102  0.61482520     0.14100
H1944       H  0.56373117  0.97743054  0.61689771     0.14700
C1945       C  0.71932451  0.88882941  0.51534520    -0.14900
C1946       C  0.73634921  0.86753424  0.54171988    -0.30100
H1947       H  0.70182967  0.90627581  0.04909785     0.14100
H1948       H  0.75854902  0.87749037  0.55838424     0.14700
C1949       C  0.78379166  0.50030506  0.60637492    -0.14900
C1950       C  0.77395309  0.53006681  0.62172564    -0.30100
H1951       H  0.74186671  0.02193449  0.61402567     0.14100
H1952       H  0.75879388  0.54913339  0.60358054     0.14700
C1953       C  0.70648332  0.96448129  0.86706333    -0.14900
C1954       C  0.73390088  0.96089680  0.89187834    -0.30100
H1955       H  0.68672230  0.97626355  0.87583639     0.14100
H1956       H  0.75349608  0.94865963  0.88311451     0.14700
C1957       C  0.98723376  0.72136233  0.64934520    -0.14900
C1958       C  0.95951078  0.72081977  0.62456927    -0.30100
H1959       H  0.00791211  0.71256261  0.64052749     0.14100
H1960       H  0.93864598  0.72900473  0.63331058     0.14700
C1961       C  0.51713305  0.76138385  0.01186898    -0.14900
C1962       C  0.98986863  0.74238420  0.50288939    -0.30100
H1963       H  0.52892387  0.75524211  0.54526779     0.14100
H1964       H  0.99430968  0.71390700  0.98140116     0.14700
C1965       C  0.97720762  0.62665848  0.52946181    -0.14900
C1966       C  0.97015868  0.59387741  0.54084432    -0.30100
H1967       H  0.99032146  0.62827965  0.50820731     0.14100
H1968       H  0.95458259  0.59202024  0.55941078     0.14700
C1969       C  0.77357490  0.71793475  0.86996684    -0.14900
C1970       C  0.80136209  0.71813584  0.89451042    -0.30100
H1971       H  0.75300245  0.70870322  0.87842692     0.14100
H1972       H  0.82190270  0.72723619  0.88587993     0.14700
C1973       C  0.74445555  0.75107201  0.50306508    -0.14900
C1974       C  0.77218487  0.73439199  0.01802934    -0.30100
H1975       H  0.73675006  0.76137230  0.47514043     0.14100
H1976       H  0.77350248  0.71386758  0.53799928     0.14700
C1977       C  0.79638293  0.61828802  0.98570557    -0.14900
C1978       C  0.77015576  0.59959667  0.97165181    -0.30100
H1979       H  0.81425215  0.60688296  0.00809217     0.14100
H1980       H  0.75104834  0.61252350  0.95196366     0.14700
C1981       C  0.87337474  0.69739468  0.02020072    -0.14900
C1982       C  0.89015290  0.69793688  0.49594343    -0.30100
H1983       H  0.87285131  0.69760986  0.04925462     0.14100
H1984       H  0.89078764  0.69754809  0.46690429     0.14700
loop_ 
_geom_bond_atom_site_label_1 
_geom_bond_atom_site_label_2 
_geom_bond_distance 
_geom_bond_site_symmetry_2 
_ccdc_geom_bond_type 
C1            C2   1.533       .  S
C1            C7   1.534       .  S
C1            C5   1.531       .  S
C1          C234   1.508       .  S
C2            H9   1.084       .  S
C2            C3   1.368       .  D
C3            C4   1.547       .  S
C3          C245   1.495       .  S
C4            C8   1.547       .  S
C4            C6   1.545       .  S
C4          H258   1.111       .  S
C5           H11   1.087       .  S
C5            C6   1.360       .  D
C6          C241   1.479       .  S
C7           H12   1.084       .  S
C7            C8   1.371       .  D
C8          C238   1.492       .  S
H10         C252   1.112   1_554  S
C13          C14   1.535       .  S
C13          C19   1.539       .  S
C13          C17   1.538       .  S
C13         C222   1.511       .  S
C14          H21   1.084       .  S
C14          C15   1.368       .  D
C15          C16   1.539       .  S
C15         C246   1.488   1_554  S
C16          C20   1.535       .  S
C16          C18   1.534       .  S
C16         H270   1.112   1_554  S
C17          H23   1.086       .  S
C17          C18   1.367       .  D
C18         C229   1.479       .  S
C19          H24   1.085       .  S
C19          C20   1.369       .  D
C20         C226   1.484   1_554  S
H22         C264   1.111       .  S
O25          C35   1.264       .  A
O25         V529   1.898   1_554  S
O26          C36   1.267       .  A
O26         V281   1.909       .  S
O27          C37   1.264       .  A
O27         V777   1.900       .  S
O28          C38   1.268       .  A
O28          V33   1.910   1_545  S
O29         C534   1.264       .  A
O29          V34   1.903       .  S
O30          C37   1.266       .  A
O30         V282   1.904       .  S
O31          C36   1.262       .  A
O31         V778   1.899   1_545  S
O32          C35   1.264       .  A
O32          V34   1.903       .  S
V33         O521   1.901       .  S
V33         O274   1.901   1_564  S
V33         O771   1.912   1_554  S
V33         V530   2.085       .  T
V34         O278   1.909   1_554  S
V34         O775   1.900   1_554  S
V34         V529   2.088   1_554  T
C35         C209   1.473       .  S
C36         C242   1.478       .  S
C37         C218   1.475       .  S
C38         O525   1.263   1_545  A
C38         C213   1.481       .  S
O39        C1041   1.262       .  A
O39          V47   1.892   1_554  S
O40         C546   1.264       .  A
O40         V295   1.908       .  S
O41        C1043   1.265       .  A
O41         V295   1.898       .  S
O42          C52   1.262       .  A
O42         V543   1.898   1_545  S
O43        C1044   1.265       .  A
O43          V48   1.906       .  S
O44          C51   1.264       .  A
O44         V792   1.904       .  S
O45        C1042   1.264       .  A
O45         V296   1.899       .  S
O46          C49   1.264       .  A
O46         V544   1.907   1_554  S
V47         O288   1.888       .  S
V47         O289   1.908       .  S
V47         O538   1.907   1_556  S
V47        V1536   2.089       .  T
V48         O788   1.903   1_544  S
V48         O293   1.889   1_554  S
V48         O542   1.896   1_545  S
V48        V1535   2.086   1_545  T
C49        O1031   1.267   1_455  A
C49         C206   1.481       .  S
C50         O536   1.265   1_545  A
C50        O1037   1.265       .  A
C50         C202   1.479       .  S
C51        O1033   1.266   1_455  A
C51         C197   1.476       .  S
C52        O1035   1.267       .  A
C52         C230   1.473       .  S
C53          C54   1.533       .  S
C53          C59   1.537       .  S
C53          C57   1.537       .  S
C53         C190   1.507       .  S
C54          H61   1.084       .  S
C54          C55   1.368       .  D
C55          C56   1.540       .  S
C55         C237   1.485   1_554  S
C56          C60   1.536       .  S
C56          C58   1.534       .  S
C56         H310   1.111   1_554  S
C57          H63   1.086       .  S
C57          C58   1.366       .  D
C58         C210   1.475       .  S
C59          H64   1.084       .  S
C59          C60   1.367       .  D
C60         C194   1.486   1_554  S
H62         C304   1.111       .  S
C65          C66   1.537       .  S
C65          C71   1.532       .  S
C65          C69   1.540       .  S
C65         C186   1.511       .  S
C66          H73   1.085       .  S
C66          C67   1.367       .  D
C67          C68   1.540       .  S
C67         C225   1.489       .  S
C68          C72   1.545       .  S
C68          C70   1.537       .  S
C68         H322   1.111       .  S
C69          H75   1.086       .  S
C69          C70   1.369       .  D
C70         C198   1.481       .  S
C71          H76   1.085       .  S
C71          C72   1.368       .  D
C72         C193   1.492       .  S
H74         C316   1.112   1_554  S
C77          C78   1.549       .  S
C77          C83   1.532       .  S
C77          C81   1.529       .  S
C77         C205   1.512       .  S
C78          H85   1.082       .  S
C78          C79   1.377       .  D
C79          C80   1.540       .  S
C79         C182   1.491       .  S
C80          C84   1.538       .  S
C80          C82   1.537       .  S
C80          H86   1.111       .  S
C81          H87   1.087       .  S
C81          C82   1.356       .  D
C82         C177   1.473       .  S
C83          H88   1.084       .  S
C83          C84   1.369       .  D
C84         C173   1.489       .  S
C89          C90   1.539       .  S
C89          C95   1.531       .  S
C89          C93   1.534       .  S
C89         C217   1.513       .  S
C90          H97   1.086       .  S
C90          C91   1.372       .  D
C91          C92   1.539       .  S
C91         C181   1.491       .  S
C92          C96   1.542       .  S
C92          C94   1.535       .  S
C92          H98   1.111       .  S
C93          H99   1.086       .  S
C93          C94   1.364       .  D
C94         C169   1.473       .  S
C95         H100   1.084       .  S
C95          C96   1.368       .  D
C96         C165   1.488       .  S
O101        C111   1.264       .  A
O101        V109   1.891       .  S
O102        C112   1.264       .  A
O102        V109   1.902       .  S
O103        C113   1.263       .  A
O103        V109   1.895       .  S
O104        C114   1.263       .  A
O104        V109   1.898       .  S
O105        C114   1.265       .  A
O105        V110   1.903       .  S
O106        C113   1.263       .  A
O106        V110   1.900       .  S
O107        C112   1.264       .  A
O107        V110   1.895       .  S
O108        C111   1.264       .  A
O108        V110   1.904       .  S
V109        V110   2.089       .  T
C111        C189   1.473       .  S
C112        C233   1.473       .  S
C113        C170   1.466       .  S
C114        C161   1.472       .  S
O115       C1117   1.265   1_455  A
O115        V123   1.905       .  S
O116        C126   1.266       .  A
O116        V123   1.903       .  S
O117       C1119   1.266   1_455  A
O117        V123   1.906       .  S
O118        C128   1.263       .  A
O118        V123   1.902       .  S
O119       C1120   1.265       .  A
O119        V124   1.898       .  S
O120        C127   1.262       .  A
O120        V124   1.898       .  S
O121       C1118   1.263       .  A
O121        V124   1.899       .  S
O122        C125   1.265       .  A
O122        V124   1.899       .  S
V123       V1116   2.085   1_455  T
V124       V1115   2.085       .  T
C125       O1107   1.264       .  A
C125        C221   1.476       .  S
C126       O1113   1.263   1_455  A
C126        C185   1.474       .  S
C127       O1109   1.265       .  A
C127        C158   1.467       .  S
C128       O1111   1.265   1_455  A
C128        C178   1.473       .  S
C129        C130   1.532       .  S
C129        C135   1.549       .  S
C129        C133   1.536       .  S
C129        C214   1.523       .  S
C130        H633   1.084   1_545  S
C130        C131   1.369       .  D
C131        C132   1.539       .  S
C131        C166   1.490       .  S
C132        C136   1.535       .  S
C132        C134   1.534       .  S
C132        H138   1.112       .  S
C133        H139   1.086       .  S
C133        C134   1.366       .  D
C134        C162   1.479       .  S
C135        H140   1.081       .  S
C135        C136   1.373       .  D
C136        C153   1.490       .  S
H137        C626   1.085       .  S
C141        C142   1.538       .  S
C141        C147   1.539       .  S
C141        C145   1.535       .  S
C141        C201   1.514       .  S
C142        H645   1.085   1_545  S
C142        C143   1.370       .  D
C143        C144   1.535       .  S
C143        C174   1.485       .  S
C144        C148   1.541       .  S
C144        C146   1.532       .  S
C144        H150   1.112       .  S
C145        H151   1.087       .  S
C145        C146   1.362       .  D
C146        C157   1.474       .  S
C147        H152   1.084       .  S
C147        C148   1.375       .  D
C148        C154   1.491       .  S
H149        C638   1.084       .  S
C153        H155   1.084       .  S
C153        C154   1.347       .  D
C154        H156   1.084       .  S
C157        H159   1.086       .  S
C157        C158   1.339       .  D
C158        H160   1.087       .  S
C161        H163   1.086       .  S
C161        C162   1.341       .  D
C162        H164   1.086       .  S
C165        H167   1.084       .  S
C165        C662   1.351       .  D
C166        H168   1.083       .  S
C166        C661   1.349   1_545  D
C169        H171   1.087       .  S
C169        C170   1.341       .  D
C170        H172   1.087       .  S
C173        H175   1.084       .  S
C173       C1662   1.347   1_455  D
C174        H176   1.083       .  S
C174       C1661   1.346   1_545  D
C177        H179   1.087   1_455  S
C177        C178   1.338       .  D
C178        H180   1.086       .  S
C181        H183   1.084       .  S
C181        C182   1.347       .  D
C182        H184   1.086       .  S
C185        H187   1.087   1_455  S
C185        C186   1.343       .  D
C186        H188   1.087       .  S
C189        H191   1.086       .  S
C189        C190   1.344       .  D
C190        H192   1.087       .  S
C193        H195   1.084       .  S
C193        C442   1.352       .  D
C194        H196   1.084       .  S
C194        C441   1.348   1_556  D
C197        H199   1.086       .  S
C197        C198   1.342       .  D
C198        H200   1.086       .  S
C201        H203   1.088       .  S
C201        C202   1.344       .  D
C202        H204   1.086   1_545  S
C205        H207   1.087   1_455  S
C205        C206   1.343       .  D
C206        H208   1.083       .  S
C209        H459   1.087       .  S
C209        C210   1.341       .  D
C210        H212   1.086       .  S
H211        C457   1.087       .  S
C213        H711   1.081       .  S
C213        C214   1.346       .  D
C214        H216   1.087       .  S
H215        C709   1.086       .  S
C217        H219   1.086       .  S
C217        C218   1.348       .  D
C218        H220   1.087       .  S
C221        H223   1.087       .  S
C221        C222   1.344       .  D
C222        H224   1.087       .  S
C225        H475   1.083       .  S
C225       C1466   1.352   1_455  D
C226        H476   1.082       .  S
C226       C1465   1.347   1_556  D
H227        C473   1.082       .  S
H228        C474   1.083       .  S
C229        H231   1.087       .  S
C229        C230   1.340       .  D
C230        H232   1.087       .  S
C233        H235   1.086       .  S
C233        C234   1.343       .  D
C234        H236   1.087       .  S
C237        H239   1.082       .  S
C237        C486   1.349   1_556  D
C238        H488   1.083       .  S
C238        C485   1.352       .  D
H240        C486   1.083       .  S
C241        H243   1.087       .  S
C241        C242   1.338       .  D
C242        H244   1.087       .  S
C245        H247   1.085       .  S
C245        C494   1.353       .  D
C246        H248   1.084       .  S
C246        C493   1.349   1_556  D
C249        C250   1.535       .  S
C249        C255   1.535       .  S
C249        C253   1.535       .  S
C249        C482   1.511       .  S
C250        H257   1.085       .  S
C250        C251   1.371       .  D
C251        C252   1.542       .  S
C251        C493   1.487   1_556  S
C252        C256   1.537       .  S
C252        C254   1.535       .  S
C253        H259   1.086       .  S
C253        C254   1.365       .  D
C254        C489   1.477       .  S
C255        H260   1.084       .  S
C255        C256   1.366       .  D
C256        C486   1.486   1_556  S
C261        C262   1.537       .  S
C261        C267   1.540       .  S
C261        C265   1.538       .  S
C261        C470   1.515       .  S
C262        H269   1.085       .  S
C262        C263   1.370       .  D
C263        C264   1.545       .  S
C263        C494   1.490       .  S
C264        C268   1.539       .  S
C264        C266   1.534       .  S
C265        H271   1.086       .  S
C265        C266   1.366       .  D
C266        C477   1.476       .  S
C267        H272   1.084       .  S
C267        C268   1.368       .  D
C268        C474   1.493       .  S
O273        C283   1.265       .  A
O273        V777   1.907       .  S
O274        C284   1.265       .  A
O275        C285   1.266       .  A
O275        V529   1.905       .  S
O276        C286   1.264       .  A
O276        V281   1.905       .  S
O277        C782   1.267       .  A
O277        V282   1.908       .  S
O278        C285   1.266       .  A
O279        C284   1.263       .  A
O279        V530   1.899   1_546  S
O280        C283   1.264       .  A
O280        V282   1.896       .  S
V281        O769   1.907   1_545  S
V281        O523   1.898   1_545  S
V281        V778   2.088   1_545  T
V282        O527   1.898       .  S
V282        V777   2.085       .  T
C283        C457   1.474       .  S
C284        C490   1.470       .  S
C285        C466   1.484       .  S
C286        O773   1.265   1_545  A
C286        C461   1.477       .  S
O287       C1289   1.265       .  A
O287        V295   1.893       .  S
O288        C794   1.260       .  A
O289       C1291   1.266       .  A
O290        C300   1.263       .  A
O290        V791   1.901   1_545  S
O291       C1292   1.264       .  A
O291        V296   1.902       .  S
O292        C299   1.263       .  A
O292        V544   1.900       .  S
O293       C1290   1.262       .  A
O294        C297   1.265       .  A
O294        V792   1.910       .  S
V295        O786   1.902       .  S
V295       V1784   2.087       .  T
V296        O540   1.901   1_545  S
V296        O790   1.901       .  S
V296       V1783   2.085       .  T
C297       O1279   1.263       .  A
C297        C454   1.475       .  S
C298        O784   1.267   1_545  A
C298       O1285   1.265       .  A
C298        C450   1.483       .  S
C299       O1281   1.266   1_455  A
C299        C445   1.473       .  S
C300       O1283   1.265       .  A
C300        C478   1.472       .  S
C301        C302   1.536       .  S
C301        C307   1.547       .  S
C301        C305   1.533       .  S
C301        C438   1.517       .  S
C302        H309   1.084       .  S
C302        C303   1.369       .  D
C303        C304   1.543       .  S
C303        C485   1.491       .  S
C304        C308   1.540       .  S
C304        C306   1.537       .  S
C305        H311   1.087       .  S
C305        C306   1.361       .  D
C306        C458   1.476       .  S
C307        H312   1.081       .  S
C307        C308   1.369       .  D
C308        C442   1.490       .  S
C313        C314   1.541       .  S
C313        C319   1.535       .  S
C313        C317   1.538       .  S
C313        C434   1.514       .  S
C314        H321   1.085       .  S
C314        C315   1.371       .  D
C315        C316   1.535       .  S
C315        C473   1.488   1_556  S
C316        C320   1.539       .  S
C316        C318   1.534       .  S
C317        H323   1.086       .  S
C317        C318   1.366       .  D
C318        C446   1.479       .  S
C319        H324   1.085       .  S
C319        C320   1.368       .  D
C320        C441   1.487   1_556  S
C325        C326   1.535       .  S
C325        C331   1.537       .  S
C325        C329   1.535       .  S
C325        C453   1.511       .  S
C326        H333   1.084       .  S
C326        C327   1.372       .  D
C327        C328   1.548       .  S
C327        C430   1.493       .  S
C328        C332   1.538       .  S
C328        C330   1.535       .  S
C328        H334   1.111       .  S
C329        H335   1.087       .  S
C329        C330   1.363       .  D
C330        C425   1.479       .  S
C331        H336   1.085       .  S
C331        C332   1.369       .  D
C332        C421   1.488       .  S
C337        C338   1.538       .  S
C337        C343   1.544       .  S
C337        C341   1.536       .  S
C337        C465   1.519       .  S
C338        H345   1.085       .  S
C338        C339   1.369       .  D
C339        C340   1.542       .  S
C339        C429   1.493       .  S
C340        C344   1.543       .  S
C340        C342   1.536       .  S
C340        H346   1.111       .  S
C341        H347   1.086       .  S
C341        C342   1.365       .  D
C342        C417   1.479       .  S
C343        H348   1.084       .  S
C343        C344   1.373       .  D
C344        C413   1.499       .  S
O349        C359   1.263       .  A
O349        V357   1.898       .  S
O350        C360   1.263       .  A
O350        V357   1.897       .  S
O351        C361   1.264       .  A
O351        V357   1.905       .  S
O352        C362   1.265       .  A
O352        V357   1.905       .  S
O353        C362   1.264       .  A
O353        V358   1.897       .  S
O354        C361   1.264       .  A
O354        V358   1.900       .  S
O355        C360   1.265       .  A
O355        V358   1.903       .  S
O356        C359   1.266       .  A
O356        V358   1.900       .  S
V357        V358   2.085       .  T
C359        C437   1.474       .  S
C360        C481   1.472       .  S
C361        C418   1.473       .  S
C362        C409   1.473       .  S
O363       C1365   1.263   1_455  A
O363        V371   1.899       .  S
O364        C374   1.266       .  A
O364        V371   1.903       .  S
O365       C1367   1.265   1_455  A
O365        V371   1.897       .  S
O366        C376   1.262       .  A
O366        V371   1.896       .  S
O367       C1368   1.265       .  A
O367        V372   1.902       .  S
O368        C375   1.265       .  A
O368        V372   1.902       .  S
O369       C1366   1.266       .  A
O369        V372   1.903       .  S
O370        C373   1.266       .  A
O370        V372   1.907       .  S
V371       V1364   2.086   1_455  T
V372       V1363   2.086       .  T
C373       O1355   1.264       .  A
C373        C469   1.476       .  S
C374       O1361   1.264   1_455  A
C374        C433   1.477       .  S
C375       O1357   1.262       .  A
C375        C406   1.468       .  S
C376       O1359   1.266   1_455  A
C376        C426   1.470       .  S
C377        C378   1.533       .  S
C377        C383   1.536       .  S
C377        C381   1.536       .  S
C377        C462   1.510       .  S
C378        H881   1.084   1_545  S
C378        C379   1.371       .  D
C379        C380   1.540       .  S
C379        C414   1.485       .  S
C380        C384   1.536       .  S
C380        C382   1.536       .  S
C380        H386   1.111       .  S
C381        H387   1.086       .  S
C381        C382   1.366       .  D
C382        C410   1.475       .  S
C383        H388   1.084       .  S
C383        C384   1.369       .  D
C384        C401   1.491       .  S
H385        C874   1.084       .  S
C389        C390   1.537       .  S
C389        C395   1.548       .  S
C389        C393   1.534       .  S
C389        C449   1.515       .  S
C390        H893   1.084   1_545  S
C390        C391   1.368       .  D
C391        C392   1.536       .  S
C391        C422   1.487       .  S
C392        C396   1.535       .  S
C392        C394   1.529       .  S
C392        H398   1.112       .  S
C393        H399   1.086       .  S
C393        C394   1.363       .  D
C394        C405   1.475       .  S
C395        H400   1.083       .  S
C395        C396   1.374       .  D
C396        C402   1.484       .  S
H397        C886   1.084       .  S
C401        H403   1.085       .  S
C401        C402   1.346       .  D
C402        H404   1.083       .  S
C405        H407   1.086       .  S
C405        C406   1.340       .  D
C406        H408   1.087       .  S
C409        H411   1.087       .  S
C409        C410   1.342       .  D
C410        H412   1.086       .  S
C413        H415   1.083       .  S
C413        C910   1.353       .  D
C414        H416   1.083       .  S
C414        C909   1.347   1_545  D
C417        H419   1.086       .  S
C417        C418   1.343       .  D
C418        H420   1.086       .  S
C421        H423   1.084       .  S
C421       C1910   1.349   1_455  D
C422        H424   1.083       .  S
C422       C1909   1.348   1_545  D
C425        H427   1.086       .  S
C425        C426   1.340       .  D
C426        H428   1.087       .  S
C429        H431   1.084       .  S
C429        C430   1.352       .  D
C430        H432   1.084       .  S
C433        H435   1.087   1_455  S
C433        C434   1.344       .  D
C434        H436   1.087       .  S
C437        H439   1.082       .  S
C437        C438   1.345       .  D
C438        H440   1.088       .  S
C441        H443   1.084       .  S
C442        H444   1.084       .  S
C445        H447   1.086       .  S
C445        C446   1.341       .  D
C446        H448   1.086       .  S
C449        H451   1.087       .  S
C449        C450   1.347       .  D
C450        H452   1.082       .  S
C453        H455   1.088       .  S
C453        C454   1.344       .  D
C454        H456   1.086       .  S
C457        C458   1.341       .  D
C458        H460   1.087       .  S
C461        H959   1.086       .  S
C461        C462   1.344       .  D
C462        H464   1.086       .  S
H463        C957   1.086       .  S
C465        H467   1.087       .  S
C465        C466   1.348       .  D
C466        H468   1.086       .  S
C469        H471   1.087       .  S
C469        C470   1.346       .  D
C470        H472   1.086       .  S
C473       C1218   1.347   1_454  D
C474       C1217   1.351       .  D
C477        H479   1.086       .  S
C477        C478   1.340       .  D
C478        H480   1.086       .  S
C481        H483   1.087       .  S
C481        C482   1.345       .  D
C482        H484   1.086       .  S
C485        H487   1.083       .  S
C489        H491   1.087   1_556  S
C489        C490   1.341       .  D
C490        H492   1.087       .  S
C493        H495   1.084       .  S
C494        H496   1.083       .  S
C497        C498   1.544       .  S
C497        C503   1.536       .  S
C497        C501   1.534       .  S
C497        C730   1.516       .  S
C498        H505   1.082       .  S
C498        C499   1.375       .  D
C499        C500   1.546       .  S
C499        C741   1.495       .  S
C500        C504   1.538       .  S
C500        C502   1.537       .  S
C500        H754   1.111       .  S
C501        H507   1.087       .  S
C501        C502   1.363       .  D
C502        C737   1.484       .  S
C503        H508   1.084       .  S
C503        C504   1.367       .  D
C504        C734   1.490       .  S
H506        C748   1.111       .  S
C509        C510   1.531       .  S
C509        C515   1.533       .  S
C509        C513   1.535       .  S
C509        C718   1.505       .  S
C510        H517   1.085       .  S
C510        C511   1.365       .  D
C511        C512   1.540       .  S
C511        C742   1.482       .  S
C512        C516   1.548       .  S
C512        C514   1.538       .  S
C512        H766   1.111   1_554  S
C513        H519   1.086       .  S
C513        C514   1.361       .  D
C514        C725   1.474       .  S
C515        H520   1.083       .  S
C515        C516   1.371       .  D
C516        C722   1.494       .  S
H518        C760   1.111       .  S
O521        C531   1.264       .  A
O522        C532   1.267       .  A
O522        V777   1.911       .  S
O523        C533   1.264       .  A
O524        C534   1.266       .  A
O524        V529   1.908   1_554  S
O525        V530   1.900       .  S
O526        C533   1.265       .  A
O526        V778   1.907       .  S
O527        C532   1.262       .  A
O528        C531   1.263       .  A
O528        V530   1.898       .  S
V529        O770   1.895       .  S
V530        O774   1.897   1_554  S
C531        C705   1.468       .  S
C532        C738   1.472       .  S
C533        C714   1.478       .  S
C534        C709   1.481       .  S
O535       C1537   1.268       .  A
O535        V543   1.908       .  S
O536        V791   1.910       .  S
O537       C1539   1.264       .  A
O537        V791   1.897       .  S
O538        C548   1.265       .  A
O539       C1540   1.264   1_455  A
O539        V544   1.898   1_554  S
O540        C547   1.263       .  A
O541       C1538   1.266   1_455  A
O541        V792   1.900       .  S
O542        C545   1.261       .  A
V543        O784   1.912   1_554  S
V543        O785   1.895   1_554  S
V543       V1040   2.080   1_565  T
V544        O789   1.901   1_455  S
V544       V1039   2.080   1_455  T
C545       O1527   1.266       .  A
C545        C702   1.471       .  S
C546       O1533   1.265       .  A
C546        C698   1.478       .  S
C547       O1529   1.264       .  A
C547        C693   1.468       .  S
C548       O1531   1.263       .  A
C548        C726   1.475       .  S
C549        C550   1.538       .  S
C549        C555   1.544       .  S
C549        C553   1.534       .  S
C549        C686   1.513       .  S
C550        H557   1.085       .  S
C550        C551   1.370       .  D
C551        C552   1.539       .  S
C551        C733   1.487       .  S
C552        C556   1.538       .  S
C552        C554   1.532       .  S
C552        H806   1.112   1_554  S
C553        H559   1.086       .  S
C553        C554   1.361       .  D
C554        C706   1.476       .  S
C555        H560   1.084       .  S
C555        C556   1.375       .  D
C556        C690   1.490       .  S
H558        C800   1.111       .  S
C561        C562   1.534       .  S
C561        C567   1.528       .  S
C561        C565   1.535       .  S
C561        C682   1.501       .  S
C562        H569   1.084       .  S
C562        C563   1.369       .  D
C563        C564   1.540       .  S
C563        C721   1.488       .  S
C564        C568   1.541       .  S
C564        C566   1.535       .  S
C564        H818   1.111       .  S
C565        H571   1.086       .  S
C565        C566   1.365       .  D
C566        C694   1.472       .  S
C567        H572   1.085       .  S
C567        C568   1.365       .  D
C568        C689   1.481       .  S
H570        C812   1.112   1_554  S
C573        C574   1.544       .  S
C573        C579   1.529       .  S
C573        C577   1.528       .  S
C573        C701   1.507       .  S
C574        H581   1.081       .  S
C574        C575   1.372       .  D
C575        C576   1.541       .  S
C575        C678   1.487       .  S
C576        C580   1.542       .  S
C576        C578   1.539       .  S
C576        H582   1.111       .  S
C577        H583   1.087       .  S
C577        C578   1.357       .  D
C578        C673   1.470       .  S
C579        H584   1.084       .  S
C579        C580   1.368       .  D
C580        C669   1.490       .  S
C585        C586   1.535       .  S
C585        C591   1.538       .  S
C585        C589   1.539       .  S
C585        C713   1.513       .  S
C586        H593   1.085       .  S
C586        C587   1.368       .  D
C587        C588   1.539       .  S
C587        C677   1.488       .  S
C588        C592   1.537       .  S
C588        C590   1.535       .  S
C588        H594   1.112       .  S
C589        H595   1.086       .  S
C589        C590   1.367       .  D
C590        C665   1.478       .  S
C591        H596   1.084       .  S
C591        C592   1.369       .  D
C592        C661   1.485       .  S
O597        C607   1.264       .  A
O597        V605   1.906       .  S
O598        C608   1.265       .  A
O598        V605   1.895       .  S
O599        C609   1.264       .  A
O599        V605   1.905       .  S
O600        C610   1.265       .  A
O600        V605   1.899       .  S
O601        C610   1.263       .  A
O601        V606   1.902       .  S
O602        C609   1.265       .  A
O602        V606   1.900       .  S
O603        C608   1.266       .  A
O603        V606   1.912       .  S
O604        C607   1.266       .  A
O604        V606   1.900       .  S
V605        V606   2.087       .  T
C607        C685   1.478       .  S
C608        C729   1.483       .  S
C609        C666   1.475       .  S
C610        C657   1.473       .  S
O611       C1613   1.262       .  A
O611        V619   1.900       .  S
O612        C622   1.265       .  A
O612        V619   1.892       .  S
O613       C1615   1.265   1_455  A
O613        V619   1.903       .  S
O614        C624   1.263       .  A
O614        V619   1.902       .  S
O615       C1616   1.264       .  A
O615        V620   1.893       .  S
O616        C623   1.261       .  A
O616        V620   1.897       .  S
O617       C1614   1.263       .  A
O617        V620   1.899       .  S
O618        C621   1.265       .  A
O618        V620   1.895       .  S
V619       V1612   2.086   1_455  T
V620       V1611   2.088       .  T
C621       O1603   1.262       .  A
C621        C717   1.469       .  S
C622       O1609   1.262   1_455  A
C622        C681   1.466       .  S
C623       O1605   1.267       .  A
C623        C654   1.475       .  S
C624       O1607   1.264       .  A
C624        C674   1.471       .  S
C625        C626   1.537       .  S
C625        C631   1.539       .  S
C625        C629   1.539       .  S
C625        C710   1.518       .  S
C626        C627   1.366       .  D
C627        C628   1.537       .  S
C627        C662   1.485       .  S
C628        C632   1.540       .  S
C628        C630   1.533       .  S
C628        H634   1.112       .  S
C629        H635   1.086       .  S
C629        C630   1.368       .  D
C630        C658   1.476       .  S
C631        H636   1.085       .  S
C631        C632   1.372       .  D
C632        C649   1.493       .  S
C637        C638   1.534       .  S
C637        C643   1.546       .  S
C637        C641   1.528       .  S
C637        C697   1.507       .  S
C638        C639   1.368       .  D
C639        C640   1.537       .  S
C639        C670   1.484       .  S
C640        C644   1.543       .  S
C640        C642   1.537       .  S
C640        H646   1.111       .  S
C641        H647   1.088       .  S
C641        C642   1.354       .  D
C642        C653   1.473       .  S
C643        H648   1.082       .  S
C643        C644   1.376       .  D
C644        C650   1.493       .  S
C649        H651   1.084       .  S
C649        C650   1.349       .  D
C650        H652   1.085       .  S
C653        H655   1.087       .  S
C653        C654   1.336       .  D
C654        H656   1.087       .  S
C657        H659   1.087       .  S
C657        C658   1.340       .  D
C658        H660   1.086       .  S
C661        H663   1.082       .  S
C662        H664   1.083       .  S
C665        H667   1.086       .  S
C665        C666   1.342       .  D
C666        H668   1.086       .  S
C669        H671   1.083       .  S
C669       C1166   1.349   1_465  D
C670        H672   1.083       .  S
C670       C1165   1.347       .  D
C673        H675   1.087       .  S
C673        C674   1.338       .  D
C674        H676   1.087       .  S
C677        H679   1.085       .  S
C677        C678   1.349       .  D
C678        H680   1.085       .  S
C681        H683   1.087   1_455  S
C681        C682   1.340       .  D
C682        H684   1.087       .  S
C685        H687   1.086       .  S
C685        C686   1.341       .  D
C686        H688   1.088       .  S
C689        H691   1.084       .  S
C689        C938   1.350       .  D
C690        H692   1.084   1_554  S
C690        C937   1.346       .  D
C693        H695   1.087       .  S
C693        C694   1.340       .  D
C694        H696   1.087       .  S
C697        H699   1.088       .  S
C697        C698   1.343       .  D
C698        H700   1.083       .  S
C701        H703   1.088       .  S
C701        C702   1.340       .  D
C702        H704   1.082       .  S
C705        H955   1.087       .  S
C705        C706   1.341       .  D
C706        H708   1.087       .  S
H707        C953   1.087       .  S
C709        C710   1.349       .  D
C710        H712   1.086       .  S
C713        H715   1.087       .  S
C713        C714   1.345       .  D
C714        H716   1.086       .  S
C717        H719   1.086       .  S
C717        C718   1.340       .  D
C718        H720   1.087       .  S
C721        H971   1.084       .  S
C721       C1962   1.348   1_455  D
C722        H972   1.083   1_554  S
C722       C1961   1.354       .  D
H723        C969   1.082       .  S
H724        C970   1.084       .  S
C725        H727   1.087       .  S
C725        C726   1.342       .  D
C726        H728   1.087       .  S
C729        H731   1.083       .  S
C729        C730   1.347       .  D
C730        H732   1.087       .  S
C733        H735   1.083   1_554  S
C733        C982   1.349       .  D
C734        H984   1.082       .  S
C734        C981   1.351       .  D
H736        C982   1.084       .  S
C737        H739   1.086       .  S
C737        C738   1.342       .  D
C738        H740   1.087       .  S
C741        H743   1.084       .  S
C741        C990   1.351       .  D
C742        H744   1.084   1_554  S
C742        C989   1.350       .  D
C745        C746   1.531       .  S
C745        C751   1.532       .  S
C745        C749   1.533       .  S
C745        C978   1.502       .  S
C746        H753   1.084       .  S
C746        C747   1.364       .  D
C747        C748   1.539   1_556  S
C747        C989   1.483   1_556  S
C748        C752   1.544   1_554  S
C748        C750   1.536   1_554  S
C749        H755   1.086       .  S
C749        C750   1.366       .  D
C750        C985   1.474       .  S
C751        H756   1.084       .  S
C751        C752   1.371       .  D
C752        C982   1.490   1_556  S
C757        C758   1.546       .  S
C757        C763   1.534       .  S
C757        C761   1.534       .  S
C757        C966   1.518       .  S
C758        H765   1.081       .  S
C758        C759   1.373       .  D
C759        C760   1.543       .  S
C759        C990   1.495       .  S
C760        C764   1.538       .  S
C760        C762   1.534       .  S
C761        H767   1.087       .  S
C761        C762   1.365       .  D
C762        C973   1.476       .  S
C763        H768   1.085       .  S
C763        C764   1.366       .  D
C764        C970   1.489       .  S
O769        C779   1.265       .  A
O770        C780   1.262       .  A
O771        C781   1.267       .  A
O772        C782   1.263       .  A
O772        V777   1.897       .  S
O773        V778   1.896       .  S
O774        C781   1.264       .  A
O775        C780   1.265       .  A
O776        C779   1.264       .  A
O776        V778   1.899       .  S
C779        C953   1.476       .  S
C780        C986   1.466       .  S
C781        C962   1.478       .  S
C782        C957   1.477       .  S
O783       C1785   1.265       .  A
O783        V791   1.897       .  S
O785       C1787   1.262       .  A
O786        C796   1.263       .  A
O787       C1788   1.265   1_455  A
O787        V792   1.901       .  S
O788        C795   1.264       .  A
O789       C1786   1.267       .  A
O790        C793   1.263   1_545  A
V791       V1288   2.087   1_565  T
V792       V1287   2.087   1_455  T
C793       O1775   1.267       .  A
C793        C950   1.479       .  S
C794       O1781   1.266       .  A
C794        C946   1.467       .  S
C795       O1777   1.264       .  A
C795        C941   1.471       .  S
C796       O1779   1.264       .  A
C796        C974   1.470       .  S
C797        C798   1.533       .  S
C797        C803   1.530       .  S
C797        C801   1.536       .  S
C797        C934   1.506       .  S
C798        H805   1.084       .  S
C798        C799   1.369       .  D
C799        C800   1.544       .  S
C799        C981   1.490       .  S
C800        C804   1.540       .  S
C800        C802   1.540       .  S
C801        H807   1.086       .  S
C801        C802   1.365       .  D
C802        C954   1.479       .  S
C803        H808   1.084       .  S
C803        C804   1.365       .  D
C804        C938   1.482       .  S
C809        C810   1.537       .  S
C809        C815   1.541       .  S
C809        C813   1.536       .  S
C809        C930   1.516       .  S
C810        H817   1.084       .  S
C810        C811   1.370       .  D
C811        C812   1.536       .  S
C811        C969   1.486   1_556  S
C812        C816   1.538       .  S
C812        C814   1.535       .  S
C813        H819   1.086       .  S
C813        C814   1.365       .  D
C814        C942   1.477       .  S
C815        H820   1.084       .  S
C815        C816   1.373       .  D
C816        C937   1.493   1_556  S
C821        C822   1.548       .  S
C821        C827   1.532       .  S
C821        C825   1.531       .  S
C821        C949   1.517       .  S
C822        H829   1.081       .  S
C822        C823   1.374       .  D
C823        C824   1.541       .  S
C823        C926   1.495       .  S
C824        C828   1.544       .  S
C824        C826   1.538       .  S
C824        H830   1.111       .  S
C825        H831   1.087       .  S
C825        C826   1.359       .  D
C826        C921   1.474       .  S
C827        H832   1.084   1_565  S
C827        C828   1.367       .  D
C828        C917   1.489       .  S
C833        C834   1.540       .  S
C833        C839   1.537       .  S
C833        C837   1.538       .  S
C833        C961   1.519       .  S
C834        H841   1.085       .  S
C834        C835   1.374       .  D
C835        C836   1.544       .  S
C835        C925   1.494       .  S
C836        C840   1.535       .  S
C836        C838   1.537       .  S
C836        H842   1.111       .  S
C837        H843   1.086       .  S
C837        C838   1.367       .  D
C838        C913   1.486       .  S
C839        H844   1.084       .  S
C839        C840   1.367       .  D
C840        C909   1.485       .  S
O845        C855   1.266       .  A
O845        V853   1.899       .  S
O846        C856   1.263       .  A
O846        V853   1.900       .  S
O847        C857   1.263       .  A
O847        V853   1.902       .  S
O848        C858   1.266       .  A
O848        V853   1.906       .  S
O849        C858   1.265       .  A
O849        V854   1.907       .  S
O850        C857   1.266       .  A
O850        V854   1.909       .  S
O851        C856   1.264       .  A
O851        V854   1.889       .  S
O852        C855   1.261       .  A
O852        V854   1.894       .  S
V853        V854   2.084       .  T
C855        C933   1.470       .  S
C856        C977   1.469       .  S
C857        C914   1.473       .  S
C858        C905   1.481       .  S
O859       C1861   1.262   1_455  A
O859        V867   1.896       .  S
O860        C870   1.264       .  A
O860        V867   1.899       .  S
O861       C1863   1.266   1_455  A
O861        V867   1.904       .  S
O862        C872   1.265       .  A
O862        V867   1.906       .  S
O863       C1864   1.263       .  A
O863        V868   1.899       .  S
O864        C871   1.264       .  A
O864        V868   1.900       .  S
O865       C1862   1.263       .  A
O865        V868   1.897       .  S
O866        C869   1.262       .  A
O866        V868   1.896       .  S
V867       V1860   2.085   1_455  T
V868       V1859   2.085       .  T
C869       O1851   1.268       .  A
C869        C965   1.477       .  S
C870       O1857   1.267   1_455  A
C870        C929   1.480       .  S
C871       O1853   1.264       .  A
C871        C902   1.469       .  S
C872       O1855   1.264   1_455  A
C872        C922   1.475       .  S
C873        C874   1.539       .  S
C873        C879   1.533       .  S
C873        C877   1.535       .  S
C873        C958   1.516       .  S
C874        C875   1.374       .  D
C875        C876   1.549       .  S
C875        C910   1.501       .  S
C876        C880   1.548       .  S
C876        C878   1.544       .  S
C876        H882   1.111       .  S
C877        H883   1.087       .  S
C877        C878   1.362       .  D
C878        C906   1.483       .  S
C879        H884   1.084       .  S
C879        C880   1.367       .  D
C880        C897   1.493       .  S
C885        C886   1.529       .  S
C885        C891   1.543       .  S
C885        C889   1.529       .  S
C885        C945   1.510       .  S
C886        C887   1.367       .  D
C887        C888   1.547       .  S
C887        C918   1.495       .  S
C888        C892   1.547       .  S
C888        C890   1.540       .  S
C888        H894   1.111       .  S
C889        H895   1.087       .  S
C889        C890   1.363       .  D
C890        C901   1.480       .  S
C891        H896   1.080       .  S
C891        C892   1.368       .  D
C892        C898   1.492       .  S
C897        H899   1.084       .  S
C897        C898   1.356       .  D
C898        H900   1.083       .  S
C901        H903   1.086       .  S
C901        C902   1.345       .  D
C902        H904   1.086       .  S
C905        H907   1.087       .  S
C905        C906   1.342       .  D
C906        H908   1.088       .  S
C909        H911   1.083       .  S
C910        H912   1.083       .  S
C913        H915   1.086       .  S
C913        C914   1.342       .  D
C914        H916   1.086       .  S
C917        H919   1.083       .  S
C917       C1414   1.353   1_465  D
C918        H920   1.083       .  S
C918       C1413   1.355       .  D
C921        H923   1.087   1_455  S
C921        C922   1.340       .  D
C922        H924   1.087       .  S
C925        H927   1.084       .  S
C925        C926   1.349       .  D
C926        H928   1.085       .  S
C929        H931   1.086   1_455  S
C929        C930   1.349       .  D
C930        H932   1.086       .  S
C933        H935   1.087       .  S
C933        C934   1.340       .  D
C934        H936   1.087       .  S
C937        H939   1.085       .  S
C938        H940   1.085       .  S
C941        H943   1.087       .  S
C941        C942   1.342       .  D
C942        H944   1.087   1_556  S
C945        H947   1.087       .  S
C945        C946   1.340       .  D
C946        H948   1.079       .  S
C949        H951   1.087       .  S
C949        C950   1.344       .  D
C950        H952   1.081       .  S
C953        C954   1.343       .  D
C954        H956   1.087       .  S
C957        C958   1.343       .  D
C958        H960   1.087       .  S
C961        H963   1.086       .  S
C961        C962   1.348       .  D
C962        H964   1.087       .  S
C965        H967   1.082       .  S
C965        C966   1.343       .  D
C966        H968   1.088       .  S
C969       C1714   1.347   1_455  D
C970       C1713   1.351       .  D
C973        H975   1.086       .  S
C973        C974   1.341       .  D
C974        H976   1.086       .  S
C977        H979   1.086       .  S
C977        C978   1.341       .  D
C978        H980   1.087       .  S
C981        H983   1.082       .  S
C985        H987   1.086   1_556  S
C985        C986   1.339       .  D
C986        H988   1.087       .  S
C989        H991   1.084       .  S
C990        H992   1.084       .  S
C993        C994   1.533       .  S
C993        C999   1.536       .  S
C993        C997   1.532       .  S
C993       C1226   1.507       .  S
C994       H1001   1.084       .  S
C994        C995   1.367       .  D
C995        C996   1.544       .  S
C995       C1237   1.492       .  S
C996       C1000   1.543       .  S
C996        C998   1.543       .  S
C996       H1250   1.111       .  S
C997       H1003   1.087       .  S
C997        C998   1.362       .  D
C998       C1233   1.479       .  S
C999       H1004   1.084       .  S
C999       C1000   1.371       .  D
C1000      C1230   1.488       .  S
H1002      C1244   1.111   1_554  S
C1005      C1006   1.537       .  S
C1005      C1011   1.537       .  S
C1005      C1009   1.537       .  S
C1005      C1214   1.514       .  S
C1006      H1013   1.084       .  S
C1006      C1007   1.367       .  D
C1007      C1008   1.539       .  S
C1007      C1238   1.488       .  S
C1008      C1012   1.539       .  S
C1008      C1010   1.535       .  S
C1008      H1262   1.112   1_554  S
C1009      H1015   1.086       .  S
C1009      C1010   1.365       .  D
C1010      C1221   1.475       .  S
C1011      H1016   1.084       .  S
C1011      C1012   1.373       .  D
C1012      C1218   1.491   1_554  S
H1014      C1256   1.112       .  S
O1017      C1027   1.264       .  A
O1017      V1521   1.900   1_554  S
O1018      C1028   1.266       .  A
O1018      V1273   1.906   1_545  S
O1019      C1029   1.267       .  A
O1019      V1769   1.912       .  S
O1020      C1030   1.264       .  A
O1020      V1025   1.901   1_554  S
O1021      C1526   1.264       .  A
O1021      V1026   1.898       .  S
O1022      C1029   1.261       .  A
O1022      V1274   1.891       .  S
O1023      C1028   1.262       .  A
O1023      V1770   1.900   1_545  S
O1024      C1027   1.265       .  A
O1024      V1026   1.905       .  S
V1025      O1513   1.897   1_546  S
V1025      O1266   1.898       .  S
V1025      O1763   1.909   1_545  S
V1025      V1522   2.089   1_546  T
V1026      O1270   1.904   1_554  S
V1026      O1767   1.903   1_554  S
V1026      V1521   2.088   1_554  T
C1027      C1201   1.475       .  S
C1028      C1234   1.475       .  S
C1029      C1210   1.473       .  S
C1030      O1517   1.265       .  A
C1030      C1205   1.476       .  S
O1031      V1039   1.897   1_554  S
O1032      C1538   1.263       .  A
O1032      V1287   1.904       .  S
O1033      V1287   1.904       .  S
O1034      C1044   1.264   1_655  A
O1034      V1535   1.898   1_645  S
O1035      V1040   1.908       .  S
O1036      C1043   1.263       .  A
O1036      V1784   1.900       .  S
O1037      V1288   1.898       .  S
O1038      C1041   1.264       .  A
O1038      V1536   1.899   1_554  S
V1039      O1280   1.905       .  S
V1039      O1281   1.904       .  S
V1039      O1530   1.909   1_556  S
V1040      O1780   1.914   1_544  S
V1040      O1285   1.894   1_554  S
V1040      O1534   1.897   1_545  S
C1041      C1198   1.466       .  S
C1042      O1528   1.266   1_455  A
C1042      C1194   1.477       .  S
C1043      C1189   1.470       .  S
C1044      C1222   1.476       .  S
C1045      C1046   1.529       .  S
C1045      C1051   1.535       .  S
C1045      C1049   1.537       .  S
C1045      C1182   1.508       .  S
C1046      H1053   1.084       .  S
C1046      C1047   1.367       .  D
C1047      C1048   1.543       .  S
C1047      C1229   1.486   1_554  S
C1048      C1052   1.541       .  S
C1048      C1050   1.538       .  S
C1048      H1302   1.111   1_554  S
C1049      H1055   1.086       .  S
C1049      C1050   1.368       .  D
C1050      C1202   1.480       .  S
C1051      H1056   1.084       .  S
C1051      C1052   1.367       .  D
C1052      C1186   1.490   1_554  S
H1054      C1296   1.111       .  S
C1057      C1058   1.539       .  S
C1057      C1063   1.530       .  S
C1057      C1061   1.537       .  S
C1057      C1178   1.509       .  S
C1058      H1065   1.085       .  S
C1058      C1059   1.370       .  D
C1059      C1060   1.541       .  S
C1059      C1217   1.492       .  S
C1060      C1064   1.544       .  S
C1060      C1062   1.535       .  S
C1060      H1314   1.111       .  S
C1061      H1067   1.086       .  S
C1061      C1062   1.367       .  D
C1062      C1190   1.475       .  S
C1063      H1068   1.085       .  S
C1063      C1064   1.365       .  D
C1064      C1185   1.486       .  S
H1066      C1308   1.111   1_554  S
C1069      C1070   1.537       .  S
C1069      C1075   1.535       .  S
C1069      C1073   1.533       .  S
C1069      C1197   1.506       .  S
C1070      H1077   1.084       .  S
C1070      C1071   1.371       .  D
C1071      C1072   1.538       .  S
C1071      C1174   1.485       .  S
C1072      C1076   1.538       .  S
C1072      C1074   1.538       .  S
C1072      H1078   1.111       .  S
C1073      H1079   1.087       .  S
C1073      C1074   1.358       .  D
C1074      C1169   1.474       .  S
C1075      H1080   1.084       .  S
C1075      C1076   1.368       .  D
C1076      C1165   1.483       .  S
C1081      C1082   1.536       .  S
C1081      C1087   1.533       .  S
C1081      C1085   1.537       .  S
C1081      C1209   1.514       .  S
C1082      H1089   1.085       .  S
C1082      C1083   1.371       .  D
C1083      C1084   1.536       .  S
C1083      C1173   1.483       .  S
C1084      C1088   1.542       .  S
C1084      C1086   1.534       .  S
C1084      H1090   1.112       .  S
C1085      H1091   1.086       .  S
C1085      C1086   1.366       .  D
C1086      C1161   1.476       .  S
C1087      H1092   1.084       .  S
C1087      C1088   1.368       .  D
C1088      C1157   1.490       .  S
O1093      C1103   1.263       .  A
O1093      V1101   1.892       .  S
O1094      C1104   1.263       .  A
O1094      V1101   1.900       .  S
O1095      C1105   1.265       .  A
O1095      V1101   1.903       .  S
O1096      C1106   1.265       .  A
O1096      V1101   1.905       .  S
O1097      C1106   1.264       .  A
O1097      V1102   1.899       .  S
O1098      C1105   1.262       .  A
O1098      V1102   1.895       .  S
O1099      C1104   1.265       .  A
O1099      V1102   1.895       .  S
O1100      C1103   1.265       .  A
O1100      V1102   1.906       .  S
V1101      V1102   2.089       .  T
C1103      C1181   1.475       .  S
C1104      C1225   1.473       .  S
C1105      C1162   1.468       .  S
C1106      C1153   1.474       .  S
O1107      V1115   1.902       .  S
O1108      C1118   1.266       .  A
O1108      V1115   1.899       .  S
O1109      V1115   1.901       .  S
O1110      C1120   1.263       .  A
O1110      V1115   1.901       .  S
O1111      V1116   1.897       .  S
O1112      C1119   1.263       .  A
O1112      V1116   1.899       .  S
O1113      V1116   1.898       .  S
O1114      C1117   1.266       .  A
O1114      V1116   1.902       .  S
C1117      C1213   1.480       .  S
C1118      C1177   1.474       .  S
C1119      C1150   1.472       .  S
C1120      C1170   1.471       .  S
C1121      C1122   1.535       .  S
C1121      C1127   1.539       .  S
C1121      C1125   1.535       .  S
C1121      C1206   1.513       .  S
C1122      H1625   1.084   1_545  S
C1122      C1123   1.370       .  D
C1123      C1124   1.544       .  S
C1123      C1158   1.492       .  S
C1124      C1128   1.541       .  S
C1124      C1126   1.538       .  S
C1124      H1130   1.111       .  S
C1125      H1131   1.086       .  S
C1125      C1126   1.365       .  D
C1126      C1154   1.480       .  S
C1127      H1132   1.084       .  S
C1127      C1128   1.370       .  D
C1128      C1145   1.493       .  S
H1129      C1618   1.084       .  S
C1133      C1134   1.541       .  S
C1133      C1139   1.540       .  S
C1133      C1137   1.539       .  S
C1133      C1193   1.517       .  S
C1134      H1637   1.085   1_545  S
C1134      C1135   1.367       .  D
C1135      C1136   1.535       .  S
C1135      C1166   1.484       .  S
C1136      C1140   1.541       .  S
C1136      C1138   1.534       .  S
C1136      H1142   1.112       .  S
C1137      H1143   1.086       .  S
C1137      C1138   1.365       .  D
C1138      C1149   1.479       .  S
C1139      H1144   1.084       .  S
C1139      C1140   1.372       .  D
C1140      C1146   1.492       .  S
H1141      C1630   1.084       .  S
C1145      H1147   1.085       .  S
C1145      C1146   1.349       .  D
C1146      H1148   1.084       .  S
C1149      H1151   1.086       .  S
C1149      C1150   1.340       .  D
C1150      H1152   1.086       .  S
C1153      H1155   1.087       .  S
C1153      C1154   1.344       .  D
C1154      H1156   1.087       .  S
C1157      H1159   1.083       .  S
C1157      C1654   1.350       .  D
C1158      H1160   1.083       .  S
C1158      C1653   1.352   1_545  D
C1161      H1163   1.087       .  S
C1161      C1162   1.339       .  D
C1162      H1164   1.087       .  S
C1165      H1167   1.083       .  S
C1166      H1168   1.082       .  S
C1169      H1171   1.087       .  S
C1169      C1170   1.338       .  D
C1170      H1172   1.087       .  S
C1173      H1175   1.084       .  S
C1173      C1174   1.345       .  D
C1174      H1176   1.086       .  S
C1177      H1179   1.087       .  S
C1177      C1178   1.341       .  D
C1178      H1180   1.087       .  S
C1181      H1183   1.087       .  S
C1181      C1182   1.345       .  D
C1182      H1184   1.087       .  S
C1185      H1187   1.084       .  S
C1185      C1434   1.354       .  D
C1186      H1188   1.084       .  S
C1186      C1433   1.350   1_556  D
C1189      H1191   1.086       .  S
C1189      C1190   1.340       .  D
C1190      H1192   1.086       .  S
C1193      H1195   1.086       .  S
C1193      C1194   1.347   1_655  D
C1194      H1196   1.087       .  S
C1197      H1199   1.086       .  S
C1197      C1198   1.343       .  D
C1198      H1200   1.087       .  S
C1201      H1451   1.087       .  S
C1201      C1202   1.343       .  D
C1202      H1204   1.087   1_554  S
H1203      C1449   1.087       .  S
C1205      H1703   1.087       .  S
C1205      C1206   1.345       .  D
C1206      H1208   1.087       .  S
H1207      C1701   1.087       .  S
C1209      H1211   1.087       .  S
C1209      C1210   1.344       .  D
C1210      H1212   1.088       .  S
C1213      H1215   1.086   1_655  S
C1213      C1214   1.345       .  D
C1214      H1216   1.086       .  S
C1217      H1467   1.083       .  S
C1218      H1468   1.084       .  S
H1219      C1465   1.084       .  S
H1220      C1466   1.084       .  S
C1221      H1223   1.086       .  S
C1221      C1222   1.343   1_655  D
C1222      H1224   1.087       .  S
C1225      H1227   1.086       .  S
C1225      C1226   1.342       .  D
C1226      H1228   1.086       .  S
C1229      H1231   1.084       .  S
C1229      C1478   1.350   1_556  D
C1230      H1480   1.083       .  S
C1230      C1477   1.349       .  D
H1232      C1478   1.083       .  S
C1233      H1235   1.088       .  S
C1233      C1234   1.339       .  D
C1234      H1236   1.087       .  S
C1237      H1239   1.085       .  S
C1237      C1486   1.352       .  D
C1238      H1240   1.084   1_554  S
C1238      C1485   1.351       .  D
C1241      C1242   1.532       .  S
C1241      C1247   1.533       .  S
C1241      C1245   1.536       .  S
C1241      C1474   1.503       .  S
C1242      H1249   1.085       .  S
C1242      C1243   1.368       .  D
C1243      C1244   1.543       .  S
C1243      C1485   1.488   1_556  S
C1244      C1248   1.539       .  S
C1244      C1246   1.535       .  S
C1245      H1251   1.086       .  S
C1245      C1246   1.365       .  D
C1246      C1481   1.473       .  S
C1247      H1252   1.084       .  S
C1247      C1248   1.365       .  D
C1248      C1478   1.482   1_556  S
C1253      C1254   1.536       .  S
C1253      C1259   1.533       .  S
C1253      C1257   1.537       .  S
C1253      C1462   1.509       .  S
C1254      H1261   1.085       .  S
C1254      C1255   1.368       .  D
C1255      C1256   1.541       .  S
C1255      C1486   1.487       .  S
C1256      C1260   1.543       .  S
C1256      C1258   1.533       .  S
C1257      H1263   1.086       .  S
C1257      C1258   1.364       .  D
C1258      C1469   1.472       .  S
C1259      H1264   1.084       .  S
C1259      C1260   1.369       .  D
C1260      C1466   1.490       .  S
O1265      C1275   1.262       .  A
O1265      V1769   1.898       .  S
O1266      C1276   1.264       .  A
O1267      C1277   1.264       .  A
O1267      V1521   1.897       .  S
O1268      C1278   1.264       .  A
O1268      V1273   1.901   1_545  S
O1269      C1774   1.261       .  A
O1269      V1274   1.898       .  S
O1270      C1277   1.264       .  A
O1271      C1276   1.263       .  A
O1271      V1522   1.899   1_546  S
O1272      C1275   1.266       .  A
O1272      V1274   1.904       .  S
V1273      O1761   1.905       .  S
V1273      O1515   1.895       .  S
V1273      V1770   2.088       .  T
V1274      O1519   1.909       .  S
V1274      V1769   2.088       .  T
C1275      C1449   1.473       .  S
C1276      C1482   1.467       .  S
C1277      C1458   1.476       .  S
C1278      O1765   1.264   1_545  A
C1278      C1453   1.473       .  S
O1279      V1287   1.892   1_455  S
O1280      C1786   1.263       .  A
O1282      C1292   1.263   1_655  A
O1282      V1783   1.894   1_655  S
O1283      V1288   1.901       .  S
O1284      C1291   1.263       .  A
O1284      V1536   1.896       .  S
O1286      C1289   1.263       .  A
O1286      V1784   1.905       .  S
V1287      O1778   1.906       .  S
V1288      O1532   1.905   1_545  S
V1288      O1782   1.906   1_545  S
C1289      C1446   1.472       .  S
C1290      O1776   1.264   1_455  A
C1290      C1442   1.466   1_455  S
C1291      C1437   1.476       .  S
C1292      C1470   1.468       .  S
C1293      C1294   1.533       .  S
C1293      C1299   1.531       .  S
C1293      C1297   1.532       .  S
C1293      C1430   1.502       .  S
C1294      H1301   1.084       .  S
C1294      C1295   1.371       .  D
C1295      C1296   1.544       .  S
C1295      C1477   1.489       .  S
C1296      C1300   1.545       .  S
C1296      C1298   1.541       .  S
C1297      H1303   1.087       .  S
C1297      C1298   1.361       .  D
C1298      C1450   1.475       .  S
C1299      H1304   1.084       .  S
C1299      C1300   1.365       .  D
C1300      C1434   1.488       .  S
C1305      C1306   1.533       .  S
C1305      C1311   1.547       .  S
C1305      C1309   1.537       .  S
C1305      C1426   1.520       .  S
C1306      H1313   1.084       .  S
C1306      C1307   1.370       .  D
C1307      C1308   1.538       .  S
C1307      C1465   1.489   1_556  S
C1308      C1312   1.538       .  S
C1308      C1310   1.533       .  S
C1309      H1315   1.086       .  S
C1309      C1310   1.364       .  D
C1310      C1438   1.474       .  S
C1311      H1316   1.080       .  S
C1311      C1312   1.368       .  D
C1312      C1433   1.489   1_556  S
C1317      C1318   1.539       .  S
C1317      C1323   1.536       .  S
C1317      C1321   1.532       .  S
C1317      C1445   1.507       .  S
C1318      H1325   1.085       .  S
C1318      C1319   1.373       .  D
C1319      C1320   1.546       .  S
C1319      C1422   1.491       .  S
C1320      C1324   1.543       .  S
C1320      C1322   1.536       .  S
C1320      H1326   1.111       .  S
C1321      H1327   1.087       .  S
C1321      C1322   1.361       .  D
C1322      C1417   1.478       .  S
C1323      H1328   1.084       .  S
C1323      C1324   1.366       .  D
C1324      C1413   1.491       .  S
C1329      C1330   1.536       .  S
C1329      C1335   1.534       .  S
C1329      C1333   1.530       .  S
C1329      C1457   1.511       .  S
C1330      H1337   1.084       .  S
C1330      C1331   1.370       .  D
C1331      C1332   1.544       .  S
C1331      C1421   1.495       .  S
C1332      C1336   1.544       .  S
C1332      C1334   1.544       .  S
C1332      H1338   1.111       .  S
C1333      H1339   1.087       .  S
C1333      C1334   1.360       .  D
C1334      C1409   1.477       .  S
C1335      H1340   1.084       .  S
C1335      C1336   1.373       .  D
C1336      C1405   1.492       .  S
O1341      C1351   1.263       .  A
O1341      V1349   1.888       .  S
O1342      C1352   1.263       .  A
O1342      V1349   1.899       .  S
O1343      C1353   1.262       .  A
O1343      V1349   1.900       .  S
O1344      C1354   1.264       .  A
O1344      V1349   1.897       .  S
O1345      C1354   1.263       .  A
O1345      V1350   1.899       .  S
O1346      C1353   1.266       .  A
O1346      V1350   1.903       .  S
O1347      C1352   1.263       .  A
O1347      V1350   1.889       .  S
O1348      C1351   1.263       .  A
O1348      V1350   1.900       .  S
V1349      V1350   2.089       .  T
C1351      C1429   1.468       .  S
C1352      C1473   1.468       .  S
C1353      C1410   1.474       .  S
C1354      C1401   1.469       .  S
O1355      V1363   1.899       .  S
O1356      C1366   1.263       .  A
O1356      V1363   1.898       .  S
O1357      V1363   1.896       .  S
O1358      C1368   1.262       .  A
O1358      V1363   1.896       .  S
O1359      V1364   1.908       .  S
O1360      C1367   1.264       .  A
O1360      V1364   1.905       .  S
O1361      V1364   1.901       .  S
O1362      C1365   1.265       .  A
O1362      V1364   1.899       .  S
C1365      C1461   1.471       .  S
C1366      C1425   1.475       .  S
C1367      C1398   1.475       .  S
C1368      C1418   1.467       .  S
C1369      C1370   1.535       .  S
C1369      C1375   1.539       .  S
C1369      C1373   1.533       .  S
C1369      C1454   1.511       .  S
C1370      H1873   1.085   1_545  S
C1370      C1371   1.370       .  D
C1371      C1372   1.542       .  S
C1371      C1406   1.488       .  S
C1372      C1376   1.540       .  S
C1372      C1374   1.538       .  S
C1372      H1378   1.111       .  S
C1373      H1379   1.087       .  S
C1373      C1374   1.359       .  D
C1374      C1402   1.472       .  S
C1375      H1380   1.085       .  S
C1375      C1376   1.371       .  D
C1376      C1393   1.491       .  S
H1377      C1866   1.084       .  S
C1381      C1382   1.535       .  S
C1381      C1387   1.538       .  S
C1381      C1385   1.532       .  S
C1381      C1441   1.511       .  S
C1382      H1885   1.084   1_545  S
C1382      C1383   1.366       .  D
C1383      C1384   1.543       .  S
C1383      C1414   1.489       .  S
C1384      C1388   1.545       .  S
C1384      C1386   1.540       .  S
C1384      H1390   1.111       .  S
C1385      H1391   1.087       .  S
C1385      C1386   1.357       .  D
C1386      C1397   1.474       .  S
C1387      H1392   1.084       .  S
C1387      C1388   1.375       .  D
C1388      C1394   1.491       .  S
H1389      C1878   1.084       .  S
C1393      H1395   1.085       .  S
C1393      C1394   1.348       .  D
C1394      H1396   1.085       .  S
C1397      H1399   1.088       .  S
C1397      C1398   1.338       .  D
C1398      H1400   1.087       .  S
C1401      H1403   1.087       .  S
C1401      C1402   1.337       .  D
C1402      H1404   1.088       .  S
C1405      H1407   1.084       .  S
C1405      C1902   1.349       .  D
C1406      H1408   1.082       .  S
C1406      C1901   1.350   1_545  D
C1409      H1411   1.088       .  S
C1409      C1410   1.338       .  D
C1410      H1412   1.087       .  S
C1413      H1415   1.082       .  S
C1414      H1416   1.083       .  S
C1417      H1419   1.086       .  S
C1417      C1418   1.342       .  D
C1418      H1420   1.087       .  S
C1421      H1423   1.085       .  S
C1421      C1422   1.351       .  D
C1422      H1424   1.083       .  S
C1425      H1427   1.080       .  S
C1425      C1426   1.346       .  D
C1426      H1428   1.087       .  S
C1429      H1431   1.086       .  S
C1429      C1430   1.341       .  D
C1430      H1432   1.087       .  S
C1433      H1435   1.084       .  S
C1434      H1436   1.085       .  S
C1437      H1439   1.087       .  S
C1437      C1438   1.343       .  D
C1438      H1440   1.086       .  S
C1441      H1443   1.086       .  S
C1441      C1442   1.346       .  D
C1442      H1444   1.087   1_655  S
C1445      H1447   1.088       .  S
C1445      C1446   1.340       .  D
C1446      H1448   1.086       .  S
C1449      C1450   1.337       .  D
C1450      H1452   1.087       .  S
C1453      H1951   1.087       .  S
C1453      C1454   1.346       .  D
C1454      H1456   1.086       .  S
H1455      C1949   1.086       .  S
C1457      H1459   1.086       .  S
C1457      C1458   1.345       .  D
C1458      H1460   1.086       .  S
C1461      H1463   1.087   1_655  S
C1461      C1462   1.343       .  D
C1462      H1464   1.087       .  S
C1469      H1471   1.086       .  S
C1469      C1470   1.340   1_655  D
C1470      H1472   1.087       .  S
C1473      H1475   1.087       .  S
C1473      C1474   1.343       .  D
C1474      H1476   1.087       .  S
C1477      H1479   1.083       .  S
C1481      H1483   1.087       .  S
C1481      C1482   1.339       .  D
C1482      H1484   1.087       .  S
C1485      H1487   1.084       .  S
C1486      H1488   1.084       .  S
C1489      C1490   1.541       .  S
C1489      C1495   1.543       .  S
C1489      C1493   1.538       .  S
C1489      C1722   1.517       .  S
C1490      H1497   1.085       .  S
C1490      C1491   1.373       .  D
C1491      C1492   1.539       .  S
C1491      C1733   1.485       .  S
C1492      C1496   1.535       .  S
C1492      C1494   1.531       .  S
C1492      H1746   1.112       .  S
C1493      H1499   1.087       .  S
C1493      C1494   1.362       .  D
C1494      C1729   1.478       .  S
C1495      H1500   1.085       .  S
C1495      C1496   1.371       .  D
C1496      C1726   1.490       .  S
H1498      C1740   1.112       .  S
C1501      C1502   1.532       .  S
C1501      C1507   1.534       .  S
C1501      C1505   1.535       .  S
C1501      C1710   1.506       .  S
C1502      H1509   1.084       .  S
C1502      C1503   1.365       .  D
C1503      C1504   1.537       .  S
C1503      C1734   1.482       .  S
C1504      C1508   1.541       .  S
C1504      C1506   1.539       .  S
C1504      H1758   1.111   1_554  S
C1505      H1511   1.086       .  S
C1505      C1506   1.364       .  D
C1506      C1717   1.476       .  S
C1507      H1512   1.084   1_655  S
C1507      C1508   1.372       .  D
C1508      C1714   1.488       .  S
H1510      C1752   1.112       .  S
O1513      C1523   1.262       .  A
O1514      C1524   1.263       .  A
O1514      V1769   1.895       .  S
O1515      C1525   1.263       .  A
O1516      C1526   1.265       .  A
O1516      V1521   1.907   1_554  S
O1517      V1522   1.902   1_545  S
O1518      C1525   1.265       .  A
O1518      V1770   1.905       .  S
O1519      C1524   1.266       .  A
O1520      C1523   1.265       .  A
O1520      V1522   1.900       .  S
V1521      O1762   1.897       .  S
V1522      O1766   1.894   1_554  S
C1523      C1697   1.467       .  S
C1524      C1730   1.474       .  S
C1525      C1706   1.475       .  S
C1526      C1701   1.479       .  S
O1527      V1535   1.895       .  S
O1528      V1783   1.909   1_655  S
O1529      V1783   1.895   1_565  S
O1530      C1540   1.266       .  A
O1531      V1536   1.895   1_554  S
O1532      C1539   1.264       .  A
O1533      V1784   1.889       .  S
O1534      C1537   1.261       .  A
V1535      O1776   1.904   1_464  S
V1535      O1777   1.898   1_554  S
V1536      O1781   1.899       .  S
C1537      C1694   1.473       .  S
C1538      C1690   1.479       .  S
C1539      C1685   1.471       .  S
C1540      C1718   1.474       .  S
C1541      C1542   1.540       .  S
C1541      C1547   1.542       .  S
C1541      C1545   1.536       .  S
C1541      C1678   1.516       .  S
C1542      H1549   1.084       .  S
C1542      C1543   1.369       .  D
C1543      C1544   1.534       .  S
C1543      C1725   1.485       .  S
C1544      C1548   1.541       .  S
C1544      C1546   1.530       .  S
C1544      H1798   1.112   1_554  S
C1545      H1551   1.087       .  S
C1545      C1546   1.362       .  D
C1546      C1698   1.473       .  S
C1547      H1552   1.084       .  S
C1547      C1548   1.375       .  D
C1548      C1682   1.493       .  S
H1550      C1792   1.111       .  S
C1553      C1554   1.535       .  S
C1553      C1559   1.532       .  S
C1553      C1557   1.537       .  S
C1553      C1674   1.508       .  S
C1554      H1561   1.085       .  S
C1554      C1555   1.367       .  D
C1555      C1556   1.540       .  S
C1555      C1713   1.487       .  S
C1556      C1560   1.544       .  S
C1556      C1558   1.536       .  S
C1556      H1810   1.111       .  S
C1557      H1563   1.086       .  S
C1557      C1558   1.366       .  D
C1558      C1686   1.477       .  S
C1559      H1564   1.085       .  S
C1559      C1560   1.368       .  D
C1560      C1681   1.487       .  S
H1562      C1804   1.111   1_554  S
C1565      C1566   1.542       .  S
C1565      C1571   1.537       .  S
C1565      C1569   1.533       .  S
C1565      C1693   1.511       .  S
C1566      H1573   1.084       .  S
C1566      C1567   1.373       .  D
C1567      C1568   1.542       .  S
C1567      C1670   1.487       .  S
C1568      C1572   1.535       .  S
C1568      C1570   1.531       .  S
C1568      H1574   1.112       .  S
C1569      H1575   1.087       .  S
C1569      C1570   1.360       .  D
C1570      C1665   1.467       .  S
C1571      H1576   1.084       .  S
C1571      C1572   1.369       .  D
C1572      C1661   1.487       .  S
C1577      C1578   1.533       .  S
C1577      C1583   1.535       .  S
C1577      C1581   1.536       .  S
C1577      C1705   1.510       .  S
C1578      H1585   1.085       .  S
C1578      C1579   1.370       .  D
C1579      C1580   1.543       .  S
C1579      C1669   1.492       .  S
C1580      C1584   1.543       .  S
C1580      C1582   1.537       .  S
C1580      H1586   1.111       .  S
C1581      H1587   1.086       .  S
C1581      C1582   1.365       .  D
C1582      C1657   1.477       .  S
C1583      H1588   1.084       .  S
C1583      C1584   1.369       .  D
C1584      C1653   1.491       .  S
O1589      C1599   1.265       .  A
O1589      V1597   1.908       .  S
O1590      C1600   1.265       .  A
O1590      V1597   1.900       .  S
O1591      C1601   1.265       .  A
O1591      V1597   1.908       .  S
O1592      C1602   1.265       .  A
O1592      V1597   1.901       .  S
O1593      C1602   1.263       .  A
O1593      V1598   1.902       .  S
O1594      C1601   1.263       .  A
O1594      V1598   1.893       .  S
O1595      C1600   1.266       .  A
O1595      V1598   1.912       .  S
O1596      C1599   1.265       .  A
O1596      V1598   1.901       .  S
V1597      V1598   2.088       .  T
C1599      C1677   1.479       .  S
C1600      C1721   1.480       .  S
C1601      C1658   1.472       .  S
C1602      C1649   1.473       .  S
O1603      V1611   1.896       .  S
O1604      C1614   1.264       .  A
O1604      V1611   1.897       .  S
O1605      V1611   1.904       .  S
O1606      C1616   1.264       .  A
O1606      V1611   1.902       .  S
O1607      V1612   1.893   1_455  S
O1608      C1615   1.261       .  A
O1608      V1612   1.895       .  S
O1609      V1612   1.896       .  S
O1610      C1613   1.266   1_655  A
O1610      V1612   1.895       .  S
C1613      C1709   1.473       .  S
C1614      C1673   1.471       .  S
C1615      C1646   1.464       .  S
C1616      C1666   1.472       .  S
C1617      C1618   1.537       .  S
C1617      C1623   1.534       .  S
C1617      C1621   1.537       .  S
C1617      C1702   1.514       .  S
C1618      C1619   1.368       .  D
C1619      C1620   1.540       .  S
C1619      C1654   1.486       .  S
C1620      C1624   1.541       .  S
C1620      C1622   1.536       .  S
C1620      H1626   1.111       .  S
C1621      H1627   1.086       .  S
C1621      C1622   1.368       .  D
C1622      C1650   1.479       .  S
C1623      H1628   1.085       .  S
C1623      C1624   1.369       .  D
C1624      C1641   1.493       .  S
C1629      C1630   1.539       .  S
C1629      C1635   1.548       .  S
C1629      C1633   1.533       .  S
C1629      C1689   1.514       .  S
C1630      C1631   1.367       .  D
C1631      C1632   1.532       .  S
C1631      C1662   1.484       .  S
C1632      C1636   1.540       .  S
C1632      C1634   1.530       .  S
C1632      H1638   1.112       .  S
C1633      H1639   1.087       .  S
C1633      C1634   1.362       .  D
C1634      C1645   1.477       .  S
C1635      H1640   1.082       .  S
C1635      C1636   1.374       .  D
C1636      C1642   1.489       .  S
C1641      H1643   1.084       .  S
C1641      C1642   1.349       .  D
C1642      H1644   1.084       .  S
C1645      H1647   1.087       .  S
C1645      C1646   1.338       .  D
C1646      H1648   1.086       .  S
C1649      H1651   1.087       .  S
C1649      C1650   1.341       .  D
C1650      H1652   1.087       .  S
C1653      H1655   1.083       .  S
C1654      H1656   1.082       .  S
C1657      H1659   1.087       .  S
C1657      C1658   1.343       .  D
C1658      H1660   1.087       .  S
C1661      H1663   1.084       .  S
C1662      H1664   1.083       .  S
C1665      H1667   1.086       .  S
C1665      C1666   1.339       .  D
C1666      H1668   1.087       .  S
C1669      H1671   1.084       .  S
C1669      C1670   1.349       .  D
C1670      H1672   1.084       .  S
C1673      H1675   1.087       .  S
C1673      C1674   1.343       .  D
C1674      H1676   1.087       .  S
C1677      H1679   1.086       .  S
C1677      C1678   1.343       .  D
C1678      H1680   1.088       .  S
C1681      H1683   1.084       .  S
C1681      C1930   1.351       .  D
C1682      H1684   1.084   1_554  S
C1682      C1929   1.347       .  D
C1685      H1687   1.086       .  S
C1685      C1686   1.342       .  D
C1686      H1688   1.087       .  S
C1689      H1691   1.087   1_655  S
C1689      C1690   1.344       .  D
C1690      H1692   1.082       .  S
C1693      H1695   1.087       .  S
C1693      C1694   1.339       .  D
C1694      H1696   1.086       .  S
C1697      H1947   1.087       .  S
C1697      C1698   1.338       .  D
C1698      H1700   1.086       .  S
H1699      C1945   1.087       .  S
C1701      C1702   1.346       .  D
C1702      H1704   1.087       .  S
C1705      H1707   1.087       .  S
C1705      C1706   1.345       .  D
C1706      H1708   1.086       .  S
C1709      H1711   1.086       .  S
C1709      C1710   1.341   1_455  D
C1710      H1712   1.087       .  S
C1713      H1963   1.083       .  S
C1714      H1964   1.083   1_554  S
H1715      C1961   1.082       .  S
H1716      C1962   1.083       .  S
C1717      H1719   1.087   1_655  S
C1717      C1718   1.342       .  D
C1718      H1720   1.087       .  S
C1721      H1723   1.086       .  S
C1721      C1722   1.345       .  D
C1722      H1724   1.088       .  S
C1725      H1727   1.084   1_554  S
C1725      C1974   1.348       .  D
C1726      H1976   1.082       .  S
C1726      C1973   1.348       .  D
H1728      C1974   1.084       .  S
C1729      H1731   1.086       .  S
C1729      C1730   1.343       .  D
C1730      H1732   1.086       .  S
C1733      H1735   1.084       .  S
C1733      C1982   1.347       .  D
C1734      H1736   1.085   1_554  S
C1734      C1981   1.347       .  D
C1737      C1738   1.534       .  S
C1737      C1743   1.532       .  S
C1737      C1741   1.539       .  S
C1737      C1970   1.508       .  S
C1738      H1745   1.085       .  S
C1738      C1739   1.365       .  D
C1739      C1740   1.534   1_556  S
C1739      C1981   1.478   1_556  S
C1740      C1744   1.541   1_554  S
C1740      C1742   1.533   1_554  S
C1741      H1747   1.086       .  S
C1741      C1742   1.368       .  D
C1742      C1977   1.475       .  S
C1743      H1748   1.085       .  S
C1743      C1744   1.370       .  D
C1744      C1974   1.489   1_556  S
C1749      C1750   1.534       .  S
C1749      C1755   1.537       .  S
C1749      C1753   1.542       .  S
C1749      C1958   1.517       .  S
C1750      H1757   1.085       .  S
C1750      C1751   1.370       .  D
C1751      C1752   1.539       .  S
C1751      C1982   1.489       .  S
C1752      C1756   1.537       .  S
C1752      C1754   1.534       .  S
C1753      H1759   1.086       .  S
C1753      C1754   1.369       .  D
C1754      C1965   1.479       .  S
C1755      H1760   1.084       .  S
C1755      C1756   1.368       .  D
C1756      C1962   1.486       .  S
O1761      C1771   1.264       .  A
O1762      C1772   1.262       .  A
O1763      C1773   1.267       .  A
O1764      C1774   1.269       .  A
O1764      V1769   1.911       .  S
O1765      V1770   1.899       .  S
O1766      C1773   1.261       .  A
O1767      C1772   1.266       .  A
O1768      C1771   1.265       .  A
O1768      V1770   1.898       .  S
C1771      C1945   1.474       .  S
C1772      C1978   1.471       .  S
C1773      C1954   1.475       .  S
C1774      C1949   1.478       .  S
O1775      V1783   1.905   1_565  S
O1778      C1788   1.265       .  A
O1779      V1784   1.897       .  S
O1780      C1787   1.268       .  A
O1782      C1785   1.265       .  A
C1785      C1942   1.479       .  S
C1786      C1938   1.477       .  S
C1787      C1933   1.474       .  S
C1788      C1966   1.477       .  S
C1789      C1790   1.536       .  S
C1789      C1795   1.536       .  S
C1789      C1793   1.532       .  S
C1789      C1926   1.511       .  S
C1790      H1797   1.083       .  S
C1790      C1791   1.374       .  D
C1791      C1792   1.543       .  S
C1791      C1973   1.494       .  S
C1792      C1796   1.540       .  S
C1792      C1794   1.541       .  S
C1793      H1799   1.087       .  S
C1793      C1794   1.362       .  D
C1794      C1946   1.476       .  S
C1795      H1800   1.084       .  S
C1795      C1796   1.367       .  D
C1796      C1930   1.487       .  S
C1801      C1802   1.536       .  S
C1801      C1807   1.542       .  S
C1801      C1805   1.539       .  S
C1801      C1922   1.522       .  S
C1802      H1809   1.083       .  S
C1802      C1803   1.368       .  D
C1803      C1804   1.544       .  S
C1803      C1961   1.493   1_556  S
C1804      C1808   1.539       .  S
C1804      C1806   1.537       .  S
C1805      H1811   1.086       .  S
C1805      C1806   1.367       .  D
C1806      C1934   1.485       .  S
C1807      H1812   1.084       .  S
C1807      C1808   1.374       .  D
C1808      C1929   1.494   1_556  S
C1813      C1814   1.548       .  S
C1813      C1819   1.535       .  S
C1813      C1817   1.537       .  S
C1813      C1941   1.516       .  S
C1814      H1821   1.082       .  S
C1814      C1815   1.371       .  D
C1815      C1816   1.535       .  S
C1815      C1918   1.483       .  S
C1816      C1820   1.537       .  S
C1816      C1818   1.530       .  S
C1816      H1822   1.112       .  S
C1817      H1823   1.086       .  S
C1817      C1818   1.364       .  D
C1818      C1913   1.474       .  S
C1819      H1824   1.084       .  S
C1819      C1820   1.368       .  D
C1820      C1909   1.488       .  S
C1825      C1826   1.532       .  S
C1825      C1831   1.535       .  S
C1825      C1829   1.536       .  S
C1825      C1953   1.513       .  S
C1826      H1833   1.085       .  S
C1826      C1827   1.369       .  D
C1827      C1828   1.540       .  S
C1827      C1917   1.490       .  S
C1828      C1832   1.543       .  S
C1828      C1830   1.537       .  S
C1828      H1834   1.111       .  S
C1829      H1835   1.086       .  S
C1829      C1830   1.366       .  D
C1830      C1905   1.479       .  S
C1831      H1836   1.084       .  S
C1831      C1832   1.371       .  D
C1832      C1901   1.489       .  S
O1837      C1847   1.263       .  A
O1837      V1845   1.893       .  S
O1838      C1848   1.263       .  A
O1838      V1845   1.899       .  S
O1839      C1849   1.265       .  A
O1839      V1845   1.904       .  S
O1840      C1850   1.266       .  A
O1840      V1845   1.901       .  S
O1841      C1850   1.263       .  A
O1841      V1846   1.899       .  S
O1842      C1849   1.263       .  A
O1842      V1846   1.900       .  S
O1843      C1848   1.265       .  A
O1843      V1846   1.898       .  S
O1844      C1847   1.266       .  A
O1844      V1846   1.909       .  S
V1845      V1846   2.088       .  T
C1847      C1925   1.478       .  S
C1848      C1969   1.473       .  S
C1849      C1906   1.473       .  S
C1850      C1897   1.474       .  S
O1851      V1859   1.907       .  S
O1852      C1862   1.268       .  A
O1852      V1859   1.918       .  S
O1853      V1859   1.900       .  S
O1854      C1864   1.265       .  A
O1854      V1859   1.900       .  S
O1855      V1860   1.894       .  S
O1856      C1863   1.260       .  A
O1856      V1860   1.892       .  S
O1857      V1860   1.910       .  S
O1858      C1861   1.268       .  A
O1858      V1860   1.913       .  S
C1861      C1957   1.478       .  S
C1862      C1921   1.481       .  S
C1863      C1894   1.463       .  S
C1864      C1914   1.471       .  S
C1865      C1866   1.538       .  S
C1865      C1871   1.548       .  S
C1865      C1869   1.532       .  S
C1865      C1950   1.517       .  S
C1866      C1867   1.372       .  D
C1867      C1868   1.541       .  S
C1867      C1902   1.490       .  S
C1868      C1872   1.539       .  S
C1868      C1870   1.536       .  S
C1868      H1874   1.111       .  S
C1869      H1875   1.087       .  S
C1869      C1870   1.356       .  D
C1870      C1898   1.473       .  S
C1871      H1876   1.084       .  S
C1871      C1872   1.376       .  D
C1872      C1889   1.496       .  S
C1877      C1878   1.536       .  S
C1877      C1883   1.540       .  S
C1877      C1881   1.529       .  S
C1877      C1937   1.513       .  S
C1878      C1879   1.369       .  D
C1879      C1880   1.539       .  S
C1879      C1910   1.489       .  S
C1880      C1884   1.546       .  S
C1880      C1882   1.535       .  S
C1880      H1886   1.111       .  S
C1881      H1887   1.087       .  S
C1881      C1882   1.360       .  D
C1882      C1893   1.476       .  S
C1883      H1888   1.085       .  S
C1883      C1884   1.377       .  D
C1884      C1890   1.497       .  S
C1889      H1891   1.084       .  S
C1889      C1890   1.349       .  D
C1890      H1892   1.084       .  S
C1893      H1895   1.086       .  S
C1893      C1894   1.340       .  D
C1894      H1896   1.087       .  S
C1897      H1899   1.088       .  S
C1897      C1898   1.339       .  D
C1898      H1900   1.087       .  S
C1901      H1903   1.083       .  S
C1902      H1904   1.083       .  S
C1905      H1907   1.086       .  S
C1905      C1906   1.342       .  D
C1906      H1908   1.087       .  S
C1909      H1911   1.083       .  S
C1910      H1912   1.084       .  S
C1913      H1915   1.086       .  S
C1913      C1914   1.340       .  D
C1914      H1916   1.087       .  S
C1917      H1919   1.085       .  S
C1917      C1918   1.347       .  D
C1918      H1920   1.084       .  S
C1921      H1923   1.087       .  S
C1921      C1922   1.347       .  D
C1922      H1924   1.086       .  S
C1925      H1927   1.086       .  S
C1925      C1926   1.346       .  D
C1926      H1928   1.086       .  S
C1929      H1931   1.084       .  S
C1930      H1932   1.084       .  S
C1933      H1935   1.086       .  S
C1933      C1934   1.341       .  D
C1934      H1936   1.086   1_556  S
C1937      H1939   1.088       .  S
C1937      C1938   1.340       .  D
C1938      H1940   1.086       .  S
C1941      H1943   1.088       .  S
C1941      C1942   1.346       .  D
C1942      H1944   1.083       .  S
C1945      C1946   1.341       .  D
C1946      H1948   1.088       .  S
C1949      C1950   1.340       .  D
C1950      H1952   1.088       .  S
C1953      H1955   1.087       .  S
C1953      C1954   1.341       .  D
C1954      H1956   1.087       .  S
C1957      H1959   1.087   1_655  S
C1957      C1958   1.344       .  D
C1958      H1960   1.087       .  S
C1965      H1967   1.087       .  S
C1965      C1966   1.342       .  D
C1966      H1968   1.087       .  S
C1969      H1971   1.087       .  S
C1969      C1970   1.342       .  D
C1970      H1972   1.087       .  S
C1973      H1975   1.083       .  S
C1977      H1979   1.087   1_556  S
C1977      C1978   1.338       .  D
C1978      H1980   1.087       .  S
C1981      H1983   1.083       .  S
C1982      H1984   1.084       .  S
