geometry optimzed in LAMMPS
_audit_creation_date              2020-11-30 
_audit_creation_method            'lammps2cif' 
_symmetry_space_group_name_H-M    'P1' 
_symmetry_Int_Tables_number       1 
_symmetry_cell_setting            triclinic 
loop_ 
_symmetry_equiv_pos_as_xyz 
  x,y,z 
_cell_length_a                    31.3433058968298 
_cell_length_b                    31.30841758178271 
_cell_length_c                    31.294468845809657 
_cell_angle_alpha                 90.08036568832176 
_cell_angle_beta                  90.42197687527805 
_cell_angle_gamma                 90.23775003011814 
loop_ 
_atom_site_label 
_atom_site_type_symbol 
_atom_site_fract_x 
_atom_site_fract_y 
_atom_site_fract_z 
_atom_site_charge 
C1          C  0.49976057  0.73421792  0.99663356     0.03720
C2          C  0.53905475  0.71302264  0.99137678    -0.12430
C3          C  0.54100975  0.66845909  0.99333117     0.01220
C4          C  0.50359812  0.64479993  0.99869859    -0.10960
C5          C  0.46416736  0.66501130  0.00345443     0.03710
C6          C  0.46223466  0.70976041  0.00201675    -0.10380
H7          H  0.56825118  0.73100070  0.98673159     0.09310
H8          H  0.50541063  0.61021972  0.99992542     0.06830
H9          H  0.43187144  0.72540580  0.00684798     0.06680
C10         C  0.73512566  0.50135730  0.99277522     0.03720
C11         C  0.71363858  0.54080216  0.99077887    -0.12430
C12         C  0.66913631  0.54220230  0.99332937     0.01220
C13         C  0.64595992  0.50432337  0.99805413    -0.10960
C14         C  0.66656832  0.46480979  0.00058701     0.03710
C15         C  0.71117993  0.46332535  0.99727805    -0.10380
H16         H  0.73143407  0.57047808  0.98890233     0.09310
H17         H  0.61144867  0.50573907  0.00010543     0.06830
H18         H  0.72719406  0.43276335  0.99903036     0.06680
C19         C  0.50102362  0.26645975  0.99933062     0.03720
C20         C  0.53928100  0.29036458  0.00240654    -0.12430
C21         C  0.53819274  0.33515925  0.00380034     0.01220
C22         C  0.49891838  0.35600945  0.00035114    -0.10960
C23         C  0.46077961  0.33297580  0.99668055     0.03710
C24         C  0.46172428  0.28831186  0.99751832    -0.10380
H25         H  0.56980774  0.27431909  0.00387491     0.09310
H26         H  0.49799300  0.39065446  0.00031606     0.06830
H27         H  0.43185602  0.27082529  0.99638137     0.06680
C28         C  0.26640127  0.49970286  0.00388858     0.03720
C29         C  0.29064598  0.53745769  0.00928278    -0.12430
C30         C  0.33532384  0.53617014  0.00850139     0.01220
C31         C  0.35577690  0.49703270  0.00248890    -0.10960
C32         C  0.33243396  0.45920762  0.99756771     0.03710
C33         C  0.28778829  0.46046840  0.99840559    -0.10380
H34         H  0.27500397  0.56768267  0.01504591     0.09310
H35         H  0.39036171  0.49595109  0.00160136     0.06830
H36         H  0.26990345  0.43110946  0.99381291     0.06680
C37         C  0.99755190  0.49941874  0.73547641     0.03720
C38         C  0.99581909  0.46117091  0.71161104    -0.12430
C39         C  0.99027210  0.46235082  0.66718695     0.01220
C40         C  0.98828749  0.50180657  0.64641897    -0.10960
C41         C  0.99113630  0.54011909  0.66929753     0.03710
C42         C  0.99584937  0.53892919  0.71384365    -0.10380
H43         H  0.99812018  0.43053362  0.72748664     0.09310
H44         H  0.98495342  0.50269749  0.61190331     0.06830
H45         H  0.99680872  0.56866254  0.73159266     0.06680
C46         C  0.00292172  0.73579325  0.50307546     0.03720
C47         C  0.99977201  0.71351587  0.54213391    -0.12430
C48         C  0.99926723  0.66882314  0.54264204     0.01220
C49         C  0.00402174  0.64623266  0.50445132    -0.10960
C50         C  0.00811542  0.66759031  0.46546730     0.03710
C51         C  0.00625547  0.71230834  0.46466266    -0.10380
H52         H  0.99718783  0.73071645  0.57205940     0.09310
H53         H  0.00402306  0.61157968  0.50506115     0.06830
H54         H  0.00746982  0.72854905  0.43417173     0.06680
C55         C  0.00208159  0.50372185  0.26671755     0.03720
C56         C  0.00597949  0.54180186  0.29051170    -0.12430
C57         C  0.00739401  0.54040645  0.33528627     0.01220
C58         C  0.00349357  0.50101423  0.35605080    -0.10960
C59         C  0.99898599  0.46305019  0.33284335     0.03710
C60         C  0.99902006  0.46430118  0.28814944    -0.10380
H61         H  0.00909429  0.57219403  0.27427269     0.09310
H62         H  0.00363772  0.49988154  0.39070282     0.06830
H63         H  0.99548951  0.43487483  0.27014472     0.06680
C64         C  0.99722582  0.26743780  0.49900684     0.03720
C65         C  0.99579245  0.29048227  0.53775191    -0.12430
C66         C  0.99101671  0.33492900  0.53746019     0.01220
C67         C  0.98900428  0.35647266  0.49840927    -0.10960
C68         C  0.99132991  0.33437083  0.45963354     0.03710
C69         C  0.99582608  0.28984229  0.45992232    -0.10380
H70         H  0.99763129  0.27391138  0.56806501     0.09310
H71         H  0.98588528  0.39098018  0.49819951     0.06830
H72         H  0.99663737  0.27267549  0.42984975     0.06680
C73         C  0.50285894  0.99980341  0.73397195     0.03720
C74         C  0.46472221  0.99597501  0.70988932    -0.12430
C75         C  0.46597849  0.99394956  0.66510337     0.01220
C76         C  0.50539366  0.99674646  0.64457487    -0.10960
C77         C  0.54344627  0.99996986  0.66784321     0.03710
C78         C  0.54218803  0.00255625  0.71242950    -0.10380
H79         H  0.43430551  0.99292256  0.72590958     0.09310
H80         H  0.50666205  0.99566118  0.60997038     0.06830
H81         H  0.57181662  0.00582889  0.73016554     0.06680
C82         C  0.73493501  0.00583205  0.49866495     0.03720
C83         C  0.71416245  0.00378882  0.53837639    -0.12430
C84         C  0.66960836  0.00332798  0.54010765     0.01220
C85         C  0.64577379  0.00581681  0.50227121    -0.11110
C86         C  0.66585057  0.00829928  0.46252572     0.03710
C87         C  0.71054688  0.00749359  0.46068662    -0.10380
H88         H  0.73255499  0.00160623  0.56773995     0.09310
H89         H  0.61119228  0.00580594  0.50380263     0.06830
H90         H  0.72625915  0.00959783  0.43001291     0.06680
C91         C  0.49723611  0.00261487  0.26661696     0.03720
C92         C  0.53565754  0.00629596  0.29028190    -0.12430
C93         C  0.53484737  0.01030530  0.33493278     0.01220
C94         C  0.49556164  0.01065834  0.35585064    -0.10960
C95         C  0.45719281  0.00736728  0.33305483     0.03710
C96         C  0.45803710  0.00254276  0.28859575    -0.10380
H97         H  0.56606443  0.00773595  0.27410888     0.09310
H98         H  0.49477781  0.01344919  0.39039694     0.06830
H99         H  0.42816187  0.99956937  0.27121144     0.06680
C100        C  0.26536752  0.99776020  0.50209189     0.03720
C101        C  0.29015002  0.99260887  0.53956348    -0.12430
C102        C  0.33484244  0.99303126  0.53756234     0.01220
C103        C  0.35466220  0.99871617  0.49803007    -0.10960
C104        C  0.33066387  0.00352761  0.46058487     0.03710
C105        C  0.28610822  0.00294275  0.46253125    -0.10380
H106        H  0.27489632  0.98713208  0.57001050     0.09310
H107        H  0.38923695  0.99939819  0.49631224     0.06830
H108        H  0.26777972  0.00737140  0.43340089     0.06680
O109        O  0.05960564  0.00110907  0.53716279    -0.71190
O110        O  0.93850433  0.00399506  0.53345768    -0.71410
O111        O  0.99714162  0.94166030  0.53619107    -0.71270
O112        O  0.00019358  0.06286547  0.53446505    -0.71270
O113        O  0.00153399  0.06177872  0.46503063    -0.71230
O114        O  0.00041662  0.94052018  0.46684217    -0.71250
O115        O  0.94002849  0.00108350  0.46406734    -0.71200
O116        O  0.06100094  0.00036642  0.46776052    -0.71380
V117        V  0.99896443  0.00232411  0.53397953     1.35240
V118        V  0.00062046  0.00106269  0.46727952     1.35170
C119        C  0.08090473  0.99998020  0.50299639     0.78050
C120        C  0.91871852  0.00288294  0.49815965     0.78110
C121        C  0.99870403  0.92048626  0.50180022     0.77980
C122        C  0.00107216  0.08292892  0.49948482     0.77940
O123        O  0.53280462  0.99906862  0.06147485    -0.71190
O124        O  0.53389285  0.99921357  0.94009604    -0.71410
O125        O  0.53526793  0.06007925  0.00125170    -0.71270
O126        O  0.53154319  0.93892526  0.00085910    -0.71270
O127        O  0.46225869  0.94050436  0.99957624    -0.71230
O128        O  0.46598359  0.06185570  0.99874466    -0.71250
O129        O  0.46460138  0.00107921  0.93885982    -0.71200
O130        O  0.46356473  0.00202158  0.06018149    -0.71380
V131        V  0.53202202  0.99941964  0.00082142     1.35240
V132        V  0.46544186  0.00125932  0.99946954     1.35170
C133        C  0.49798262  0.00067862  0.08150153     0.78050
C134        C  0.49942613  0.00017769  0.91882038     0.78110
C135        C  0.50123657  0.08158863  0.99983751     0.77980
C136        C  0.49637746  0.91904864  0.00019387     0.77940
O137        O  0.94010721  0.46712229  0.00426178    -0.71190
O138        O  0.06108280  0.46735627  0.00084926    -0.71410
O139        O  0.00323707  0.46900340  0.06278276    -0.71270
O140        O  0.99823414  0.46566333  0.94161171    -0.71270
O141        O  0.00496852  0.53474955  0.93999378    -0.71230
O142        O  0.99659587  0.53805824  0.06098362    -0.71250
O143        O  0.06122153  0.53667772  0.00457749    -0.71200
O144        O  0.94017448  0.53597846  0.99557713    -0.71380
V145        V  0.00062408  0.46856122  0.00227647     1.35240
V146        V  0.00069433  0.53512443  0.00040179     1.35170
C147        C  0.91951867  0.50140076  0.99927554     0.78050
C148        C  0.08178217  0.50201587  0.00332264     0.78110
C149        C  0.00016162  0.50407900  0.08250781     0.77980
C150        C  0.00201499  0.49967242  0.92015910     0.77940
C151        C  0.19451597  0.97589768  0.47173288    -0.20720
C152        C  0.21797076  0.99721182  0.50380551    -0.08760
C153        C  0.19568265  0.01851310  0.53646232     0.30100
C154        C  0.15103726  0.01842169  0.53666433    -0.20720
C155        C  0.12787884  0.99808703  0.50389207    -0.08770
C156        C  0.15000634  0.97659576  0.47148100     0.30110
F157        F  0.12861048  0.95557525  0.43991162    -0.19290
H158        H  0.21068558  0.95852350  0.44671191     0.18470
H159        H  0.13453334  0.03544722  0.56172035     0.18480
F160        F  0.21684067  0.04098067  0.56715381    -0.19280
C161        C  0.41000618  0.04632978  0.38270418    -0.20720
C162        C  0.41685370  0.01031575  0.35693466    -0.08760
C163        C  0.38919676  0.97503621  0.36021772     0.30100
C164        C  0.35765087  0.97448639  0.39175735    -0.20720
C165        C  0.35355769  0.00908888  0.42000984    -0.08770
C166        C  0.37865186  0.04577091  0.41405536     0.30110
F167        F  0.37512996  0.07963895  0.44092000    -0.19290
H168        H  0.43102071  0.07379760  0.38047848     0.18470
H169        H  0.33882328  0.94578746  0.39638230     0.18480
F170        F  0.39541864  0.93966721  0.33595809    -0.19280
C171        C  0.52869257  0.97828226  0.15170080    -0.20720
C172        C  0.49762851  0.00097095  0.12864411    -0.08760
C173        C  0.46651525  0.02391262  0.15101201     0.30100
C174        C  0.46685687  0.02442636  0.19564742    -0.20720
C175        C  0.49761379  0.00137221  0.21901710    -0.08770
C176        C  0.52846377  0.97791584  0.19641888     0.30110
F177        F  0.55761627  0.95358369  0.21733224    -0.19290
H178        H  0.55267797  0.95999406  0.13499750     0.18470
H179        H  0.44325292  0.04352134  0.21194444     0.18480
F180        F  0.43658030  0.04699673  0.12975604    -0.19280
C181        C  0.60973510  0.04689531  0.42224702    -0.20720
C182        C  0.63896965  0.01314984  0.42385023    -0.08760
C183        C  0.63779787  0.98172334  0.39169998     0.30100
C184        C  0.60556064  0.98254312  0.36032461    -0.20720
C185        C  0.57432203  0.01462482  0.36089872    -0.08770
C186        C  0.57779433  0.04778797  0.39108149     0.30110
F187        F  0.54878616  0.07986979  0.39181567    -0.19290
H188        H  0.61039984  0.07154167  0.44660236     0.18470
H189        H  0.60325225  0.95661333  0.33744980     0.18480
F190        F  0.66547474  0.94850809  0.39274653    -0.19280
C191        C  0.85030485  0.03343643  0.52289022    -0.20720
C192        C  0.87186918  0.00413302  0.49702366    -0.08760
C193        C  0.84836386  0.97606718  0.47078268     0.30100
C194        C  0.80373932  0.97709250  0.47094792    -0.20720
C195        C  0.78208753  0.00620003  0.49713630    -0.08770
C196        C  0.80578502  0.03483689  0.52269213     0.30110
F197        F  0.78587260  0.06464979  0.54687727    -0.19290
H198        H  0.86804510  0.05563487  0.54288476     0.18470
H199        H  0.78603218  0.95453629  0.45134503     0.18480
F200        F  0.86851144  0.94655220  0.44643778    -0.19280
C201        C  0.62306154  0.96182826  0.58804575    -0.20720
C202        C  0.64665541  0.99915688  0.58077028    -0.08760
C203        C  0.64143508  0.03452601  0.60793474     0.30100
C204        C  0.61003659  0.03362166  0.63964013    -0.20720
C205        C  0.58390545  0.99742987  0.64426242    -0.08770
C206        C  0.59201318  0.96083619  0.61964050     0.30110
F207        F  0.56739227  0.92532355  0.62387121    -0.19290
H208        H  0.62669121  0.93442095  0.56721803     0.18470
H209        H  0.60390159  0.06215534  0.65819110     0.18480
F210        F  0.66384186  0.07105968  0.60119025    -0.19280
C211        C  0.39481501  0.95704232  0.57473710    -0.20720
C212        C  0.36204522  0.98736096  0.57595935    -0.08760
C213        C  0.35981245  0.01555293  0.61092586     0.30100
C214        C  0.39225755  0.01572178  0.64210503    -0.20720
C215        C  0.42703198  0.98775164  0.63861735    -0.08770
C216        C  0.42689772  0.95704249  0.60573762     0.30110
F217        F  0.45910568  0.92838345  0.60230690    -0.19290
H218        H  0.39670945  0.93467769  0.54841454     0.18470
H219        H  0.39172912  0.03951453  0.66719844     0.18480
F220        F  0.32840271  0.04517953  0.61299791    -0.19280
C221        C  0.47034668  0.02264951  0.80334931    -0.20720
C222        C  0.50175873  0.99948513  0.78147986    -0.08760
C223        C  0.53177984  0.97589256  0.80541431     0.30100
C224        C  0.53113213  0.97680556  0.85004256    -0.20720
C225        C  0.49985250  0.00003682  0.87171616    -0.08770
C226        C  0.46910946  0.02267226  0.84802928     0.30110
F227        F  0.43867003  0.04586205  0.86805497    -0.19290
H228        H  0.44702072  0.04123582  0.78584077     0.18470
H229        H  0.55455403  0.95849032  0.86773758     0.18480
F230        F  0.56091922  0.95075676  0.78581106    -0.19280
C231        C  0.02566744  0.19793662  0.47137679    -0.20720
C232        C  0.99858331  0.22001591  0.49935262    -0.08760
C233        C  0.97223488  0.19636618  0.52701279     0.30100
C234        C  0.97384768  0.15180653  0.52724025    -0.20720
C235        C  0.00069095  0.12992296  0.49915175    -0.08770
C236        C  0.02653435  0.15324566  0.47100839     0.30110
F237        F  0.05346840  0.13286160  0.44409575    -0.19290
H238        H  0.04646122  0.21533646  0.44999843     0.18470
H239        H  0.95321148  0.13424856  0.54867524     0.18480
F240        F  0.94373415  0.21615763  0.55272540    -0.19280
C241        C  0.02356374  0.36097026  0.39175805    -0.20720
C242        C  0.98861029  0.35912397  0.41954983    -0.08760
C243        C  0.95409811  0.38695583  0.41306911     0.30100
C244        C  0.95630469  0.41863734  0.38193073    -0.20720
C245        C  0.99275288  0.42292554  0.35661311    -0.08770
C246        C  0.02571960  0.39283743  0.36036522     0.30110
F247        F  0.06149085  0.39668886  0.33646747    -0.19290
H248        H  0.05055336  0.33996615  0.39655821     0.18470
H249        H  0.93068634  0.44165611  0.37937953     0.18480
F250        F  0.91958648  0.38540495  0.43900794    -0.19280
C251        C  0.03009107  0.47883252  0.19670910    -0.20720
C252        C  0.00182864  0.50484318  0.21948487    -0.08760
C253        C  0.97336589  0.53127758  0.19686885     0.30100
C254        C  0.97339712  0.53157961  0.15214391    -0.20720
C255        C  0.00126839  0.50505466  0.12949885    -0.08770
C256        C  0.02986000  0.47886199  0.15209648     0.30110
F257        F  0.05830413  0.45411353  0.13100371    -0.19290
H258        H  0.05257746  0.45866739  0.21357343     0.18470
H259        H  0.95093394  0.55167703  0.13516955     0.18480
F260        F  0.94458215  0.55559243  0.21798109    -0.19280
C261        C  0.98291344  0.64343915  0.39318207    -0.20720
C262        C  0.01352349  0.64197146  0.42615986    -0.08760
C263        C  0.04601757  0.61124048  0.42445640     0.30100
C264        C  0.04562867  0.58021195  0.39249871    -0.20720
C265        C  0.01296652  0.57929210  0.36162348    -0.08770
C266        C  0.98255914  0.61220571  0.36098142     0.30110
F267        F  0.95045419  0.61193436  0.33164520    -0.19290
H268        H  0.95756629  0.66683192  0.39410661     0.18470
H269        H  0.06953703  0.55531149  0.39322762     0.18480
F270        F  0.07671284  0.60975736  0.45525800    -0.19280
C271        C  0.97469423  0.80559164  0.53030344    -0.20720
C272        C  0.00193495  0.78334582  0.50252014    -0.08760
C273        C  0.02814376  0.80702465  0.47469721     0.30100
C274        C  0.02620673  0.85159318  0.47418193    -0.20720
C275        C  0.99934984  0.87350702  0.50224811    -0.08770
C276        C  0.97378128  0.85023054  0.53061397     0.30110
F277        F  0.94702560  0.87059562  0.55772781    -0.19290
H278        H  0.95365983  0.78841995  0.55161552     0.18470
H279        H  0.04667298  0.86914741  0.45257845     0.18480
F280        F  0.05680353  0.78738531  0.44906606    -0.19280
C281        C  0.95430487  0.58685176  0.61703396    -0.20720
C282        C  0.98869429  0.58065715  0.64528120    -0.08760
C283        C  0.02349842  0.60915155  0.64432544     0.30100
C284        C  0.02534841  0.64094139  0.61284182    -0.20720
C285        C  0.99254657  0.64441349  0.58228219    -0.08770
C286        C  0.95619249  0.61836344  0.58571292     0.30110
F287        F  0.92395233  0.62134403  0.55666789    -0.19290
H288        H  0.92719483  0.56525627  0.61741127     0.18470
H289        H  0.05374335  0.66059921  0.61028340     0.18480
F290        F  0.05738187  0.60361143  0.67096605    -0.19280
C291        C  0.01970849  0.39351461  0.63950158    -0.20720
C292        C  0.98614318  0.42304394  0.64128739    -0.08760
C293        C  0.95120166  0.41837649  0.61326613     0.30100
C294        C  0.95166011  0.38715513  0.58154149    -0.20720
C295        C  0.98684761  0.35999151  0.57723280    -0.08770
C296        C  0.02013369  0.36204000  0.60755404     0.30110
F297        F  0.05463060  0.33625854  0.60398466    -0.19290
H298        H  0.04691871  0.39678423  0.66078805     0.18470
H299        H  0.92556566  0.38571428  0.55869010     0.18480
F300        F  0.91779460  0.44579517  0.61497795    -0.19280
C301        C  0.97645887  0.46924715  0.85107985    -0.20720
C302        C  0.00236757  0.49861507  0.87311257    -0.08760
C303        C  0.02743957  0.52758312  0.84983263     0.30100
C304        C  0.02639911  0.52709236  0.80517403    -0.20720
C305        C  0.99983651  0.49824921  0.78291826    -0.08770
C306        C  0.97463661  0.46935437  0.80645595     0.30110
F307        F  0.94675293  0.44251314  0.78655297    -0.19290
H308        H  0.95642875  0.44711419  0.86852535     0.18470
H309        H  0.04647415  0.54933017  0.78793930     0.18480
F310        F  0.05351285  0.55584433  0.87023803    -0.19280
C311        C  0.15169658  0.53480483  0.98452278    -0.20720
C312        C  0.12879636  0.50191983  0.00443805    -0.08760
C313        C  0.15117814  0.46868996  0.02459868     0.30100
C314        C  0.19575763  0.46855713  0.02482690    -0.20720
C315        C  0.21893570  0.50104259  0.00425290    -0.08770
C316        C  0.19629088  0.53418127  0.98381000     0.30110
F317        F  0.21700858  0.56508765  0.96164647    -0.19290
H318        H  0.13496553  0.56037876  0.96832125     0.18470
H319        H  0.21217312  0.44305250  0.04141922     0.18480
F320        F  0.12998175  0.43682937  0.04492421    -0.19280
C321        C  0.39028528  0.35741831  0.02429067    -0.20720
C322        C  0.42057226  0.35685666  0.99145997    -0.08760
C323        C  0.41599766  0.38494468  0.95678852     0.30100
C324        C  0.38407275  0.41579852  0.95699347    -0.20720
C325        C  0.35621244  0.41907333  0.99168609    -0.08770
C326        C  0.35815500  0.38847366  0.02448296     0.30110
F327        F  0.33185295  0.39130696  0.05862531    -0.19290
H328        H  0.39358229  0.33610719  0.05134523     0.18470
H329        H  0.38300654  0.43920890  0.93153686     0.18480
F330        F  0.44448905  0.38455351  0.92431491    -0.19280
C331        C  0.53103462  0.19638440  0.02436888    -0.20720
C332        C  0.50199704  0.21887749  0.99835176    -0.08760
C333        C  0.47379923  0.19540769  0.97184821     0.30100
C334        C  0.47357153  0.15080351  0.97290714    -0.20720
C335        C  0.50236390  0.12861386  0.99907127    -0.08770
C336        C  0.53161757  0.15168967  0.02437070     0.30110
F337        F  0.55964764  0.13105778  0.05029125    -0.19290
H338        H  0.55284072  0.21335650  0.04538426     0.18470
H339        H  0.45137373  0.13348030  0.95254965     0.18480
F340        F  0.44720018  0.21536960  0.94396565    -0.19280
C341        C  0.64152404  0.39209512  0.97745513    -0.20720
C342        C  0.64040695  0.42585683  0.00705754    -0.08760
C343        C  0.60981716  0.42498746  0.03970381     0.30100
C344        C  0.57860618  0.39316586  0.04026984    -0.20720
C345        C  0.57729697  0.36151646  0.00848769    -0.08770
C346        C  0.61010577  0.36001789  0.97808568     0.30110
F347        F  0.60962206  0.32988204  0.94687641    -0.19290
H348        H  0.66484321  0.39223661  0.95206838     0.18470
H349        H  0.55388695  0.39454353  0.06427764     0.18480
F350        F  0.60872793  0.45633692  0.06971052    -0.19280
C351        C  0.80429360  0.47450921  0.02273325    -0.20720
C352        C  0.78253464  0.50027078  0.99301315    -0.08760
C353        C  0.80646659  0.52595965  0.96496810     0.30100
C354        C  0.85103040  0.52662256  0.96761254    -0.20720
C355        C  0.87254599  0.50094473  0.99738500    -0.08770
C356        C  0.84886700  0.47455376  0.02474202     0.30110
F357        F  0.86877969  0.44999991  0.05446204    -0.19290
H358        H  0.78672904  0.45494111  0.04513021     0.18470
H359        H  0.86884968  0.54661649  0.94577519     0.18480
F360        F  0.78688798  0.54970239  0.93438018    -0.19280
C361        C  0.62703279  0.59564191  0.03263778    -0.20720
C362        C  0.64571571  0.58285272  0.99417935    -0.08760
C363        C  0.63475807  0.60393240  0.95604973     0.30100
C364        C  0.60284896  0.63521166  0.95614245    -0.20720
C365        C  0.58192555  0.64552389  0.99426423    -0.08770
C366        C  0.59538850  0.62678052  0.03276080     0.30110
F367        F  0.57532498  0.63608252  0.06991706    -0.19290
H368        H  0.63486432  0.57929112  0.06214530     0.18470
H369        H  0.59232689  0.64902366  0.92617303     0.18480
F370        F  0.65210774  0.59158654  0.91841180    -0.19280
C371        C  0.39037007  0.64078703  0.98337295    -0.20720
C372        C  0.42584907  0.63834059  0.01094314    -0.08760
C373        C  0.42703799  0.60622061  0.04229739     0.30100
C374        C  0.39537642  0.57490613  0.04339365    -0.20720
C375        C  0.36186388  0.57505315  0.01345227    -0.08770
C376        C  0.35845250  0.60927149  0.98454592     0.30110
F377        F  0.32646778  0.61015273  0.95509369    -0.19290
H378        H  0.38892419  0.66530365  0.95901675     0.18470
H379        H  0.39824301  0.54906093  0.06622454     0.18480
F380        F  0.46014505  0.60381031  0.07041372    -0.19280
C381        C  0.46469207  0.80397392  0.97827592    -0.20720
C382        C  0.49820537  0.78169786  0.99833613    -0.08760
C383        C  0.52988596  0.80521634  0.02040209     0.30100
C384        C  0.52889249  0.84977109  0.02071368    -0.20720
C385        C  0.49574598  0.87191864  0.00028741    -0.08770
C386        C  0.46319076  0.84865701  0.97953064     0.30110
F387        F  0.43079427  0.86907241  0.95917388    -0.19290
H388        H  0.43995513  0.78681784  0.96098216     0.18470
H389        H  0.55385194  0.86705472  0.03759212     0.18480
F390        F  0.56123091  0.78528229  0.04280781    -0.19280
loop_ 
_geom_bond_atom_site_label_1 
_geom_bond_atom_site_label_2 
_geom_bond_distance 
_geom_bond_site_symmetry_2 
_ccdc_geom_bond_type 
C1            C2   1.412       .  A
C1            C6   1.412   1_556  A
C1          C382   1.488       .  S
C2            C3   1.398       .  A
C2            H7   1.083       .  S
C3            C4   1.396       .  A
C3          C365   1.473       .  S
C4            C5   1.400   1_556  A
C4            H8   1.085       .  S
C5            C6   1.403       .  A
C5          C372   1.480       .  S
C6            H9   1.084       .  S
C10          C11   1.410       .  A
C10          C15   1.413       .  A
C10         C352   1.486       .  S
C11          C12   1.399       .  A
C11          H16   1.084       .  S
C12          C13   1.397       .  A
C12         C362   1.472       .  S
C13          C14   1.400   1_556  A
C13          H17   1.085   1_556  S
C14          C15   1.404   1_554  A
C14         C342   1.482       .  S
C15          H18   1.084       .  S
C19          C20   1.413   1_556  A
C19          C24   1.412       .  A
C19         C332   1.490       .  S
C20          C21   1.404       .  A
C20          H25   1.083       .  S
C21          C22   1.399       .  A
C21         C345   1.481       .  S
C22          C23   1.397   1_554  A
C22          H26   1.085       .  S
C23          C24   1.399       .  A
C23         C322   1.476       .  S
C24          H27   1.083       .  S
C28          C29   1.412       .  A
C28          C33   1.413   1_554  A
C28         C315   1.489       .  S
C29          C30   1.401       .  A
C29          H34   1.083       .  S
C30          C31   1.398       .  A
C30         C375   1.479       .  S
C31          C32   1.397   1_554  A
C31          H35   1.085       .  S
C32          C33   1.401       .  A
C32         C325   1.476       .  S
C33          H36   1.083       .  S
C37          C38   1.411       .  A
C37          C42   1.412       .  A
C37         C305   1.486       .  S
C38          C39   1.400       .  A
C38          H43   1.083       .  S
C39          C40   1.398       .  A
C39         C292   1.477       .  S
C40          C41   1.398       .  A
C40          H44   1.085       .  S
C41          C42   1.401       .  A
C41         C282   1.478       .  S
C42          H45   1.084       .  S
C46          C47   1.412   1_455  A
C46          C51   1.413       .  A
C46         C272   1.489       .  S
C47          C48   1.399       .  A
C47          H52   1.083       .  S
C48          C49   1.397   1_655  A
C48         C285   1.474       .  S
C49          C50   1.399       .  A
C49          H53   1.085       .  S
C50          C51   1.402       .  A
C50         C262   1.479       .  S
C51          H54   1.083       .  S
C55          C56   1.409       .  A
C55          C60   1.409   1_455  A
C55         C252   1.479       .  S
C56          C57   1.402       .  A
C56          H61   1.084       .  S
C57          C58   1.400       .  A
C57         C265   1.478       .  S
C58          C59   1.398   1_455  A
C58          H62   1.085       .  S
C59          C60   1.399       .  A
C59         C245   1.474       .  S
C60          H63   1.084       .  S
C64          C65   1.411       .  A
C64          C69   1.411       .  A
C64         C232   1.486       .  S
C65          C66   1.400       .  A
C65          H70   1.083       .  S
C66          C67   1.398       .  A
C66         C295   1.477       .  S
C67          C68   1.399       .  A
C67          H71   1.085       .  S
C68          C69   1.402       .  A
C68         C242   1.478       .  S
C69          H72   1.084       .  S
C73          C74   1.413       .  A
C73          C78   1.412   1_565  A
C73         C222   1.487       .  S
C74          C75   1.404       .  A
C74          H79   1.084       .  S
C75          C76   1.399       .  A
C75         C215   1.482       .  S
C76          C77   1.396       .  A
C76          H80   1.084       .  S
C77          C78   1.398   1_565  A
C77         C205   1.474       .  S
C78          H81   1.083       .  S
C82          C83   1.409       .  A
C82          C87   1.410       .  A
C82         C195   1.479       .  S
C83          C84   1.398       .  A
C83          H88   1.084       .  S
C84          C85   1.398       .  A
C84         C202   1.472   1_545  S
C85          C86   1.400       .  A
C85          H89   1.085       .  S
C86          C87   1.403       .  A
C86         C182   1.478       .  S
C87          H90   1.084       .  S
C91          C92   1.413       .  A
C91          C96   1.412       .  A
C91         C175   1.490       .  S
C92          C93   1.403       .  A
C92          H97   1.083       .  S
C93          C94   1.399       .  A
C93         C185   1.481       .  S
C94          C95   1.397       .  A
C94          H98   1.085       .  S
C95          C96   1.400       .  A
C95         C162   1.477       .  S
C96          H99   1.083   1_545  S
C100        C101   1.412       .  A
C100        C105   1.412   1_565  A
C100        C152   1.487       .  S
C101        C102   1.403       .  A
C101        H106   1.083       .  S
C102        C103   1.400       .  A
C102        C212   1.480       .  S
C103        C104   1.396   1_565  A
C103        H107   1.086       .  S
C104        C105   1.398       .  A
C104        C165   1.473       .  S
C105        H108   1.083       .  S
O109        V117   1.903   1_455  S
O109        C119   1.265   1_545  A
O110        V117   1.896       .  S
O110        C120   1.263       .  A
O111        V117   1.901   1_565  S
O111        C121   1.265       .  A
O112        V117   1.896   1_455  S
O112        C122   1.263       .  A
O113        V118   1.902       .  S
O113        C122   1.265       .  A
O114        V118   1.896   1_565  S
O114        C121   1.263   1_455  A
O115        V118   1.901   1_655  S
O115        C120   1.264       .  A
O116        V118   1.893       .  S
O116        C119   1.263   1_545  A
V117        V118   2.089   1_655  T
C119        C155   1.474       .  S
C120        C192   1.469       .  S
C121        C275   1.471       .  S
C122        C235   1.471       .  S
O123        V131   1.898       .  S
O123        C133   1.264   1_565  A
O124        V131   1.902   1_556  S
O124        C134   1.265   1_565  A
O125        V131   1.901   1_545  S
O125        C135   1.264   1_554  A
O126        V131   1.894       .  S
O126        C136   1.264       .  A
O127        V132   1.904   1_565  S
O127        C136   1.265   1_556  A
O128        V132   1.897       .  S
O128        C135   1.264       .  A
O129        V132   1.897       .  S
O129        C134   1.263       .  A
O130        V132   1.901   1_554  S
O130        C133   1.265       .  A
V131        V132   2.088   1_564  T
C133        C172   1.475       .  S
C134        C225   1.474       .  S
C135        C335   1.473       .  S
C136        C385   1.476       .  S
O137        V145   1.899   1_655  S
O137        C147   1.264   1_554  A
O138        V145   1.896       .  S
O138        C148   1.264       .  A
O139        V145   1.895       .  S
O139        C149   1.263       .  A
O140        V145   1.901   1_656  S
O140        C150   1.265   1_655  A
O141        V146   1.896   1_556  S
O141        C150   1.263       .  A
O142        V146   1.903   1_655  S
O142        C149   1.265   1_655  A
O143        V146   1.901       .  S
O143        C148   1.265       .  A
O144        V146   1.902   1_656  S
O144        C147   1.265       .  A
V145        V146   2.085       .  T
C147        C355   1.473       .  S
C148        C312   1.474       .  S
C149        C255   1.471       .  S
C150        C302   1.473       .  S
C151        C152   1.406       .  A
C151        C156   1.395       .  A
C151        H158   1.083       .  S
C152        C153   1.411   1_565  A
C153        C154   1.399       .  A
C153        F160   1.357       .  S
C154        C155   1.403   1_545  A
C154        H159   1.083       .  S
C155        C156   1.405       .  A
C156        F157   1.358       .  S
C161        C162   1.403       .  A
C161        C166   1.394       .  A
C161        H168   1.084       .  S
C162        C163   1.406   1_545  A
C163        C164   1.402       .  A
C163        F170   1.357       .  S
C164        C165   1.404   1_565  A
C164        H169   1.083       .  S
C165        C166   1.403       .  A
C166        F167   1.358       .  S
C171        C172   1.404   1_565  A
C171        C176   1.400       .  A
C171        H178   1.084       .  S
C172        C173   1.404       .  A
C173        C174   1.397       .  A
C173        F180   1.358       .  S
C174        C175   1.408       .  A
C174        H179   1.083       .  S
C175        C176   1.410   1_545  A
C176        F177   1.357       .  S
C181        C182   1.402       .  A
C181        C186   1.393       .  A
C181        H188   1.084       .  S
C182        C183   1.406   1_545  A
C183        C184   1.404       .  A
C183        F190   1.357       .  S
C184        C185   1.406   1_565  A
C184        H189   1.083       .  S
C185        C186   1.406       .  A
C186        F187   1.358       .  S
C191        C192   1.402       .  A
C191        C196   1.396       .  A
C191        H198   1.084       .  S
C192        C193   1.405   1_545  A
C193        C194   1.399       .  A
C193        F200   1.358       .  S
C194        C195   1.405   1_565  A
C194        H199   1.083       .  S
C195        C196   1.407       .  A
C196        F197   1.358       .  S
C201        C202   1.400       .  A
C201        C206   1.393       .  A
C201        H208   1.084       .  S
C202        C203   1.406   1_565  A
C203        C204   1.403       .  A
C203        F210   1.357       .  S
C204        C205   1.404   1_545  A
C204        H209   1.083       .  S
C205        C206   1.405       .  A
C206        F207   1.358       .  S
C211        C212   1.402       .  A
C211        C216   1.392       .  A
C211        H218   1.083       .  S
C212        C213   1.407   1_565  A
C213        C214   1.404       .  A
C213        F220   1.357       .  S
C214        C215   1.406   1_545  A
C214        H219   1.082       .  S
C215        C216   1.407       .  A
C216        F217   1.358       .  S
C221        C222   1.406   1_545  A
C221        C226   1.399       .  A
C221        H228   1.083       .  S
C222        C223   1.410       .  A
C223        C224   1.397       .  A
C223        F230   1.357       .  S
C224        C225   1.402   1_565  A
C224        H229   1.083       .  S
C225        C226   1.406       .  A
C226        F227   1.358       .  S
C231        C232   1.407   1_455  A
C231        C236   1.400       .  A
C231        H238   1.083       .  S
C232        C233   1.410       .  A
C233        C234   1.396       .  A
C233        F240   1.358       .  S
C234        C235   1.401   1_655  A
C234        H239   1.084       .  S
C235        C236   1.404       .  A
C236        F237   1.357       .  S
C241        C242   1.405   1_455  A
C241        C246   1.403       .  A
C241        H248   1.083       .  S
C242        C243   1.406       .  A
C243        C244   1.393       .  A
C243        F250   1.358       .  S
C244        C245   1.401       .  A
C244        H249   1.084       .  S
C245        C246   1.406   1_655  A
C246        F247   1.357       .  S
C251        C252   1.403       .  A
C251        C256   1.396       .  A
C251        H258   1.083       .  S
C252        C253   1.407   1_455  A
C253        C254   1.400       .  A
C253        F260   1.358       .  S
C254        C255   1.403   1_655  A
C254        H259   1.083       .  S
C255        C256   1.405       .  A
C256        F257   1.358       .  S
C261        C262   1.405   1_655  A
C261        C266   1.403       .  A
C261        H268   1.083       .  S
C262        C263   1.405       .  A
C263        C264   1.393       .  A
C263        F270   1.358       .  S
C264        C265   1.403       .  A
C264        H269   1.084       .  S
C265        C266   1.407   1_455  A
C266        F267   1.357       .  S
C271        C272   1.409   1_655  A
C271        C276   1.398       .  A
C271        H278   1.083       .  S
C272        C273   1.411       .  A
C273        C274   1.397       .  A
C273        F280   1.357       .  S
C274        C275   1.402   1_455  A
C274        H279   1.084       .  S
C275        C276   1.403       .  A
C276        F277   1.358       .  S
C281        C282   1.403       .  A
C281        C286   1.393       .  A
C281        H288   1.084       .  S
C282        C283   1.407   1_655  A
C283        C284   1.403       .  A
C283        F290   1.357       .  S
C284        C285   1.404   1_455  A
C284        H289   1.083       .  S
C285        C286   1.403       .  A
C286        F287   1.358       .  S
C291        C292   1.405   1_455  A
C291        C296   1.403       .  A
C291        H298   1.083       .  S
C292        C293   1.405       .  A
C293        C294   1.392       .  A
C293        F300   1.358       .  S
C294        C295   1.403       .  A
C294        H299   1.083       .  S
C295        C296   1.406   1_655  A
C296        F297   1.357       .  S
C301        C302   1.401   1_655  A
C301        C306   1.397       .  A
C301        H308   1.084       .  S
C302        C303   1.405       .  A
C303        C304   1.398       .  A
C303        F310   1.358       .  S
C304        C305   1.406   1_455  A
C304        H309   1.083       .  S
C305        C306   1.410       .  A
C306        F307   1.357       .  S
C311        C312   1.402   1_556  A
C311        C316   1.398       .  A
C311        H318   1.083       .  S
C312        C313   1.405       .  A
C313        C314   1.397       .  A
C313        F320   1.358       .  S
C314        C315   1.407       .  A
C314        H319   1.083       .  S
C315        C316   1.411   1_554  A
C316        F317   1.357       .  S
C321        C322   1.404   1_554  A
C321        C326   1.403       .  A
C321        H328   1.083       .  S
C322        C323   1.404       .  A
C323        C324   1.394       .  A
C323        F330   1.358       .  S
C324        C325   1.402       .  A
C324        H329   1.084       .  S
C325        C326   1.406   1_556  A
C326        F327   1.357       .  S
C331        C332   1.408   1_554  A
C331        C336   1.400       .  A
C331        H338   1.082       .  S
C332        C333   1.411       .  A
C333        C334   1.397       .  A
C333        F340   1.357       .  S
C334        C335   1.401       .  A
C334        H339   1.083       .  S
C335        C336   1.404   1_556  A
C336        F337   1.357       .  S
C341        C342   1.405   1_556  A
C341        C346   1.404       .  A
C341        H348   1.083       .  S
C342        C343   1.406       .  A
C343        C344   1.394       .  A
C343        F350   1.358       .  S
C344        C345   1.403       .  A
C344        H349   1.084       .  S
C345        C346   1.407   1_554  A
C346        F347   1.357       .  S
C351        C352   1.406   1_554  A
C351        C356   1.398       .  A
C351        H358   1.083       .  S
C352        C353   1.409       .  A
C353        C354   1.399       .  A
C353        F360   1.357       .  S
C354        C355   1.402       .  A
C354        H359   1.084       .  S
C355        C356   1.405   1_556  A
C356        F357   1.358       .  S
C361        C362   1.401   1_554  A
C361        C366   1.394       .  A
C361        H368   1.084       .  S
C362        C363   1.405       .  A
C363        C364   1.403       .  A
C363        F370   1.357       .  S
C364        C365   1.403       .  A
C364        H369   1.083       .  S
C365        C366   1.404   1_556  A
C366        F367   1.358       .  S
C371        C372   1.405   1_556  A
C371        C376   1.403       .  A
C371        H378   1.083       .  S
C372        C373   1.406       .  A
C373        C374   1.393       .  A
C373        F380   1.358       .  S
C374        C375   1.402       .  A
C374        H379   1.084       .  S
C375        C376   1.407   1_554  A
C376        F377   1.357       .  S
C381        C382   1.408       .  A
C381        C386   1.400       .  A
C381        H388   1.083       .  S
C382        C383   1.410   1_556  A
C383        C384   1.395       .  A
C383        F390   1.357       .  S
C384        C385   1.402       .  A
C384        H389   1.083       .  S
C385        C386   1.406   1_554  A
C386        F387   1.357       .  S
