geometry optimzed in LAMMPS
_audit_creation_date              2020-12-01 
_audit_creation_method            'lammps2cif' 
_symmetry_space_group_name_H-M    'P1' 
_symmetry_Int_Tables_number       1 
_symmetry_cell_setting            triclinic 
loop_ 
_symmetry_equiv_pos_as_xyz 
  x,y,z 
_cell_length_a                    66.7866331 
_cell_length_b                    66.72468292521552 
_cell_length_c                    85.22921350699869 
_cell_angle_alpha                 90.2045339802238 
_cell_angle_beta                  89.86320310222195 
_cell_angle_gamma                 121.07533288915941 
loop_ 
_atom_site_label 
_atom_site_type_symbol 
_atom_site_fract_x 
_atom_site_fract_y 
_atom_site_fract_z 
_atom_site_charge 
N1          N  0.34700664  0.36678362  0.98030597    -0.27100
N2          N  0.36112353  0.38703221  0.97338779    -0.34900
C3          C  0.34911807  0.39080465  0.96232874     0.01300
C4          C  0.32630790  0.37208301  0.96227936     0.07300
C5          C  0.32557427  0.35727353  0.97391381    -0.05800
H6          H  0.35635867  0.40635761  0.95514975     0.08000
H7          H  0.31060427  0.34070045  0.97740282     0.09200
Cu8        Cu  0.39582415  0.40932765  0.97962463     0.44200
Cu9        Cu  0.35749784  0.35263140  0.99791977     0.42000
Cu10       Cu  0.41813315  0.38723366  0.00919571     0.43900
N11         N  0.42911313  0.42877656  0.98914960    -0.34500
N12         N  0.43730041  0.42058810  0.99986326    -0.28700
C13         C  0.45901751  0.43753513  0.00390929    -0.04800
C14         C  0.46478356  0.45750372  0.99544815     0.07400
C15         C  0.44538531  0.45120233  0.98613552     0.01200
H16         H  0.46959421  0.43559310  0.01266421     0.08800
H17         H  0.44320661  0.46198783  0.97769321     0.07900
N18         N  0.39519717  0.35433344  0.01822566    -0.35900
N19         N  0.37285305  0.34172247  0.01438851    -0.28100
C20         C  0.36289237  0.32146904  0.02243016    -0.03300
C21         C  0.37985833  0.32122552  0.03166232     0.05300
C22         C  0.40008249  0.34246926  0.02872009     0.03400
H23         H  0.34475010  0.30771794  0.02137277     0.08500
H24         H  0.41710412  0.34907364  0.03394471     0.07300
N25         N  0.72701377  0.69913916  0.69201769    -0.27100
N26         N  0.70673239  0.69296581  0.68543503    -0.34900
C27         C  0.69822290  0.70546694  0.69190098     0.01300
C28         C  0.71393425  0.72031526  0.70311246     0.07300
C29         C  0.73189682  0.71565844  0.70293724    -0.05800
H30         H  0.68186564  0.70390291  0.68855945     0.08000
H31         H  0.74778126  0.72428126  0.70981439     0.09200
Cu32       Cu  0.69234168  0.66900211  0.66722892     0.44200
Cu33       Cu  0.74785994  0.68618562  0.68474733     0.42000
Cu34       Cu  0.72823132  0.64901837  0.64969374     0.43900
N35         N  0.68212165  0.64664255  0.64808432    -0.34500
N36         N  0.69522948  0.63950170  0.64138923    -0.28700
C37         C  0.68307419  0.62468552  0.62958461    -0.04800
C38         C  0.66119898  0.62236123  0.62885716     0.07400
C39         C  0.66135438  0.63659924  0.64079359     0.01200
H40         H  0.68933217  0.61546231  0.62260054     0.08800
H41         H  0.64725241  0.63924394  0.64414939     0.07900
N42         N  0.75950204  0.65958207  0.66130303    -0.35900
N43         N  0.76644315  0.67276343  0.67407575    -0.28100
C44         C  0.78741641  0.67645209  0.67846374    -0.03300
C45         C  0.79406198  0.66497245  0.66799571     0.05300
C46         C  0.77589042  0.65454147  0.65725474     0.03400
H47         H  0.79732987  0.68736291  0.68827653     0.08500
H48         H  0.77460328  0.64400740  0.64719692     0.07300
N49         N  0.70960748  0.00857752  0.67930357    -0.27100
N50         N  0.73232504  0.02126550  0.68206762    -0.34900
C51         C  0.73802640  0.01056163  0.69295530     0.01300
C52         C  0.71798793  0.99005438  0.69733057     0.07300
C53         C  0.70022803  0.98944538  0.68852408    -0.05800
H54         H  0.75557512  0.01722882  0.69727968     0.08000
H55         H  0.68201914  0.97565693  0.68837261     0.09200
Cu56       Cu  0.75508222  0.05247924  0.67095912     0.44200
Cu57       Cu  0.69315015  0.01742251  0.66221066     0.42000
Cu58       Cu  0.73154603  0.07217866  0.64124902     0.43900
N59         N  0.77445238  0.08463166  0.66004987    -0.34500
N60         N  0.76574112  0.09222961  0.64930876    -0.28700
C61         C  0.78209102  0.11430621  0.64541759    -0.04800
C62         C  0.80216505  0.12084582  0.65403829     0.07400
C63         C  0.79657425  0.10152706  0.66321157     0.01200
H64         H  0.77947392  0.12488945  0.63704280     0.08800
H65         H  0.80735644  0.10012417  0.67206168     0.07900
N66         N  0.69643796  0.04956278  0.63594444    -0.35900
N67         N  0.68237920  0.03006118  0.64367636    -0.28100
C68         C  0.66067387  0.02044031  0.63768345    -0.03300
C69         C  0.66107811  0.03440764  0.62550754     0.05300
C70         C  0.68409349  0.05273059  0.62481001     0.03400
H71         H  0.64565473  0.00448452  0.64194782     0.08500
H72         H  0.69125543  0.06782572  0.61720813     0.07300
N73         N  0.71097123  0.88566562  0.74525716    -0.27100
N74         N  0.70444769  0.89296221  0.75760354    -0.34900
C75         C  0.70371344  0.91208183  0.75355661     0.01300
C76         C  0.71030759  0.91708847  0.73795372     0.07300
C77         C  0.71488761  0.90004459  0.73313197    -0.05800
H78         H  0.69911951  0.92180895  0.76145392     0.08000
H79         H  0.72023430  0.89796008  0.72154431     0.09200
Cu80       Cu  0.69754451  0.87655895  0.77935579     0.44200
Cu81       Cu  0.71297165  0.85576127  0.74499238     0.42000
Cu82       Cu  0.70001992  0.82284222  0.78064367     0.43900
N83         N  0.69269651  0.85715314  0.79961085    -0.34500
N84         N  0.69357693  0.83778865  0.80002707    -0.28700
C85         C  0.68956528  0.82959956  0.81481294    -0.04800
C86         C  0.68601001  0.84447352  0.82416829     0.07400
C87         C  0.68813708  0.86176022  0.81414966     0.01200
H88         H  0.68913004  0.81386154  0.81844455     0.08800
H89         H  0.68633159  0.87651643  0.81715869     0.07900
N90         N  0.70683121  0.81184863  0.75946705    -0.35900
N91         N  0.71136715  0.82404134  0.74639591    -0.28100
C92         C  0.71389225  0.81219921  0.73455028    -0.03300
C93         C  0.71102856  0.79155731  0.74039946     0.05300
C94         C  0.70657352  0.79191869  0.75628459     0.03400
H95         H  0.71743365  0.81816262  0.72251806     0.08500
H96         H  0.70263349  0.77838862  0.76479969     0.07300
N97         N  0.63781106  0.78930822  0.91566814    -0.27100
N98         N  0.64961982  0.78550445  0.90479199    -0.34900
C99         C  0.65155740  0.76720610  0.90919075     0.01300
C100        C  0.64017686  0.75893727  0.92343587     0.07300
C101        C  0.63172368  0.77344283  0.92717129    -0.05800
H102        H  0.66055691  0.76039999  0.90250551     0.08000
H103        H  0.62264091  0.77314327  0.93777193     0.09200
Cu104      Cu  0.66244702  0.80567300  0.88456010     0.44200
Cu105      Cu  0.63286586  0.81753317  0.91534540     0.42000
Cu106      Cu  0.66049260  0.85937972  0.88403428     0.43900
N107        N  0.67127430  0.82757432  0.86516410    -0.34500
N108        N  0.67048568  0.84698815  0.86493273    -0.28700
C109        C  0.67601022  0.85622401  0.85042083    -0.04800
C110        C  0.68044966  0.84193831  0.84107457     0.07400
C111        C  0.67733366  0.82399326  0.85081748     0.01200
H112        H  0.67624342  0.87189137  0.84686589     0.08800
H113        H  0.67878702  0.80908524  0.84763315     0.07900
N114        N  0.64744125  0.86609413  0.90429296    -0.35900
N115        N  0.63639077  0.85028049  0.91535794    -0.28100
C116        C  0.62987365  0.85965107  0.92680381    -0.03300
C117        C  0.63738478  0.88259561  0.92289800     0.05300
C118        C  0.64844927  0.88607489  0.90850906     0.03400
H119        H  0.62095521  0.85062937  0.93744360     0.08500
H120        H  0.65643044  0.90183892  0.90152002     0.07300
N121        N  0.97154500  0.61592620  0.02296407    -0.27100
N122        N  0.97837961  0.63590367  0.01567026    -0.34900
C123        C  0.96739046  0.64609710  0.02198943     0.01300
C124        C  0.95288548  0.63197103  0.03390316     0.07300
C125        C  0.95596495  0.61292547  0.03415149    -0.05800
H126        H  0.96992737  0.66270988  0.01819815     0.08000
H127        H  0.94721648  0.59771948  0.04163288     0.09200
Cu128      Cu  0.00247527  0.64914045  0.99757210     0.44200
Cu129      Cu  0.98389227  0.59375946  0.01749283     0.42000
Cu130      Cu  0.03110580  0.61777218  0.98905587     0.43900
N131        N  0.02901796  0.66031089  0.98121523    -0.34500
N132        N  0.03998506  0.64893822  0.97838596    -0.28700
C133        C  0.05714354  0.66100107  0.96793006    -0.04800
C134        C  0.05695465  0.68099441  0.96396723     0.07400
C135        C  0.03879323  0.67991083  0.97254796     0.01200
H136        H  0.06879638  0.65552406  0.96354935     0.08800
H137        H  0.03354922  0.69277674  0.97285712     0.07900
N138        N  0.01853097  0.58598260  0.99997548    -0.35900
N139        N  0.00116952  0.57680517  0.01020617    -0.28100
C140        C  0.99691450  0.55548174  0.01434631    -0.03300
C141        C  0.01238364  0.55111570  0.00628433     0.05300
C142        C  0.02576543  0.57090444  0.99731785     0.03400
H143        H  0.98303833  0.54377371  0.02218837     0.08500
H144        H  0.03959911  0.57407246  0.98922764     0.07300
N145        N  0.66622515  0.64253754  0.01545920    -0.27100
N146        N  0.65283360  0.62213271  0.02238870    -0.34900
C147        C  0.66495323  0.61986813  0.03415585     0.01300
C148        C  0.68708103  0.63978432  0.03460385     0.07300
C149        C  0.68717923  0.65369871  0.02255253    -0.05800
H150        H  0.65848237  0.60436907  0.04130555     0.08000
H151        H  0.70159778  0.67058816  0.01898831     0.09200
Cu152      Cu  0.61938619  0.59760210  0.01468726     0.44200
Cu153      Cu  0.65618719  0.65449222  0.99634429     0.42000
Cu154      Cu  0.59758389  0.61670579  0.98254840     0.43900
N155        N  0.58712303  0.57644772  0.00401250    -0.34500
N156        N  0.57911041  0.58359129  0.99248240    -0.28700
C157        C  0.55770556  0.56604865  0.98838571    -0.04800
C158        C  0.55197460  0.54680518  0.99766110     0.07400
C159        C  0.57107417  0.55407902  0.00745539     0.01200
H160        H  0.54716246  0.56718084  0.97921431     0.08800
H161        H  0.57301068  0.54408333  0.01665622     0.07900
N162        N  0.61955118  0.65021357  0.97389519    -0.35900
N163        N  0.64136407  0.66388302  0.97863174    -0.28100
C164        C  0.65083291  0.68446277  0.97103721    -0.03300
C165        C  0.63410109  0.68378490  0.96108728     0.05300
C166        C  0.61446790  0.66180180  0.96327835     0.03400
H167        H  0.66823805  0.69917402  0.97317081     0.08500
H168        H  0.59761273  0.65482143  0.95769339     0.07300
N169        N  0.70734680  0.72473801  0.30967167    -0.27100
N170        N  0.69922675  0.70329531  0.31493332    -0.34900
C171        C  0.71036735  0.69396389  0.30758540     0.01300
C172        C  0.72646752  0.71036696  0.29719735     0.07300
C173        C  0.72389422  0.72962021  0.29880615    -0.05800
H174        H  0.70678466  0.67644474  0.30967043     0.08000
H175        H  0.73376353  0.74622491  0.29282822     0.09200
Cu176      Cu  0.67404773  0.68801277  0.33232474     0.44200
Cu177      Cu  0.69630442  0.74666737  0.31819748     0.42000
Cu178      Cu  0.65657230  0.72528766  0.35145314     0.43900
N179        N  0.64983995  0.67702290  0.35038338    -0.34500
N180        N  0.64367158  0.69062498  0.35754678    -0.28700
C181        C  0.62756840  0.67805798  0.36855992    -0.04800
C182        C  0.62322366  0.65538310  0.36821476     0.07400
C183        C  0.63779732  0.65546265  0.35658968     0.01200
H184        H  0.61919513  0.68479034  0.37598377     0.08800
H185        H  0.63972205  0.64101759  0.35292272     0.07900
N186        N  0.67035630  0.75851145  0.34200418    -0.35900
N187        N  0.68446221  0.76610394  0.32972897    -0.28100
C188        C  0.68964054  0.78791927  0.32629248    -0.03300
C189        C  0.67823015  0.79452766  0.33687478     0.05300
C190        C  0.66625377  0.77533198  0.34672487     0.03400
H191        H  0.70066001  0.79805652  0.31659453     0.08500
H192        H  0.65547007  0.77355828  0.35670715     0.07300
N193        N  0.88247894  0.69425415  0.25221715    -0.27100
N194        N  0.89093276  0.69074623  0.23916213    -0.34900
C195        C  0.91075615  0.69098303  0.24254987     0.01300
C196        C  0.91493722  0.69481857  0.25855904     0.07300
C197        C  0.89650401  0.69665037  0.26426383    -0.05800
H198        H  0.92125828  0.68850963  0.23397842     0.08000
H199        H  0.89382789  0.70016833  0.27624514     0.09200
Cu200      Cu  0.87491960  0.68678611  0.21750099     0.44200
Cu201      Cu  0.85308897  0.69713415  0.25277325     0.42000
Cu202      Cu  0.82627715  0.69818893  0.21629372     0.43900
N203        N  0.85625902  0.68476412  0.19740571    -0.34500
N204        N  0.83900558  0.68907521  0.19694575    -0.28700
C205        C  0.83080460  0.68587841  0.18217608    -0.04800
C206        C  0.84349676  0.67931461  0.17290075     0.07400
C207        C  0.85948299  0.67880611  0.18292279     0.01200
H208        H  0.81656227  0.68807855  0.17850087     0.08800
H209        H  0.87245280  0.67431929  0.17995006     0.07900
N210        N  0.81491004  0.70242680  0.23811929    -0.35900
N211        N  0.82452192  0.70129147  0.25136408    -0.28100
C212        C  0.81255041  0.70278035  0.26351548    -0.03300
C213        C  0.79451523  0.70510765  0.25775756     0.05300
C214        C  0.79655325  0.70486652  0.24154950     0.03400
H215        H  0.81662559  0.70204323  0.27569924     0.08500
H216        H  0.78500605  0.70538463  0.23290025     0.07300
N217        N  0.80007826  0.65685031  0.07709852    -0.27100
N218        N  0.79135833  0.65985871  0.09021004    -0.34900
C219        C  0.77119742  0.65896588  0.08688242     0.01300
C220        C  0.76722878  0.65546120  0.07085482     0.07300
C221        C  0.78589833  0.65411087  0.06509900    -0.05800
H222        H  0.76023713  0.66068742  0.09548632     0.08000
H223        H  0.78866312  0.65057394  0.05315304     0.09200
Cu224      Cu  0.80756406  0.66442625  0.11181452     0.44200
Cu225      Cu  0.83015816  0.65530225  0.07602680     0.42000
Cu226      Cu  0.85986733  0.65901194  0.11188538     0.43900
N227        N  0.82733623  0.66801742  0.13159242    -0.34500
N228        N  0.84590509  0.66575742  0.13168813    -0.28700
C229        C  0.85436368  0.66921414  0.14640440    -0.04800
C230        C  0.84055785  0.67397312  0.15598298     0.07400
C231        C  0.82361100  0.67306544  0.14621212     0.01200
H232        H  0.86963801  0.66861537  0.14981449     0.08800
H233        H  0.80961223  0.67593612  0.14945204     0.07900
N234        N  0.87074030  0.65397655  0.09007575    -0.35900
N235        N  0.85980737  0.65299063  0.07694186    -0.28100
C236        C  0.87073810  0.64987330  0.06477934    -0.03300
C237        C  0.88962135  0.64888460  0.07044406     0.05300
C238        C  0.88898190  0.65140358  0.08658755     0.03400
H239        H  0.86491298  0.64789422  0.05274151     0.08500
H240        H  0.90098083  0.65153845  0.09515157     0.07300
N241        N  0.04025428  0.67650470  0.34808955    -0.27100
N242        N  0.06315475  0.68722011  0.34994569    -0.34900
C243        C  0.06814446  0.67511884  0.36016085     0.01300
C244        C  0.04737586  0.65589029  0.36509423     0.07300
C245        C  0.03001019  0.65737225  0.35728497    -0.05800
H246        H  0.08563178  0.67997835  0.36369944     0.08000
H247        H  0.01139029  0.64497954  0.35779111     0.09200
Cu248      Cu  0.08667056  0.71786007  0.33862602     0.44200
Cu249      Cu  0.02463066  0.68772932  0.33205964     0.42000
Cu250      Cu  0.06405627  0.74096946  0.31009657     0.43900
N251        N  0.10697620  0.74974805  0.32766575    -0.34500
N252        N  0.09888704  0.75836046  0.31718992    -0.28700
C253        C  0.11620484  0.77993699  0.31313160    -0.04800
C254        C  0.13613391  0.78516059  0.32151711     0.07400
C255        C  0.12952571  0.76556498  0.33061636     0.01200
H256        H  0.11403295  0.79135797  0.30527008     0.08800
H257        H  0.14015258  0.76314768  0.33907114     0.07900
N258        N  0.02823103  0.72029301  0.30597994    -0.35900
N259        N  0.01402476  0.70122438  0.31405515    -0.28100
C260        C  0.99216594  0.69202077  0.30848700    -0.03300
C261        C  0.99244430  0.70595499  0.29633549     0.05300
C262        C  0.01571325  0.72365926  0.29506068     0.03400
H263        H  0.97732058  0.67600167  0.31280211     0.08500
H264        H  0.02302358  0.73810294  0.28688406     0.07300
N265        N  0.61056035  0.96406992  0.97616807    -0.27100
N266        N  0.63230860  0.97248704  0.98092153    -0.34900
C267        C  0.64181667  0.96220706  0.97270116     0.01300
C268        C  0.62517724  0.94627418  0.96240777     0.07300
C269        C  0.60556567  0.94794175  0.96491646    -0.05800
H270        H  0.65935475  0.96561112  0.97441044     0.08000
H271        H  0.58892555  0.93826939  0.95895444     0.09200
Cu272      Cu  0.64786993  0.99688365  0.99876111     0.44200
Cu273      Cu  0.58882149  0.97521398  0.98508717     0.42000
Cu274      Cu  0.61320397  0.01941967  0.01543234     0.43900
N275        N  0.65977160  0.02222417  0.01613421    -0.34500
N276        N  0.64734356  0.03081879  0.02191319    -0.28700
C277        C  0.66052835  0.04789160  0.03221886    -0.04800
C278        C  0.68219445  0.04994467  0.03312460     0.07400
C279        C  0.68109883  0.03339964  0.02275609     0.01200
H280        H  0.65474599  0.05806187  0.03858028     0.08800
H281        H  0.69499395  0.03022414  0.01981977     0.07900
N282        N  0.57997352  0.00624189  0.00627843    -0.35900
N283        N  0.57112827  0.99028537  0.99503889    -0.28100
C284        C  0.55000082  0.98659103  0.99103584    -0.03300
C285        C  0.54519679  0.00080127  0.00025268     0.05300
C286        C  0.56468459  0.01301809  0.00978461     0.03400
H287        H  0.53904470  0.97458927  0.98194754     0.08500
H288        H  0.56804307  0.02657852  0.01819404     0.07300
N289        N  0.48313753  0.46264968  0.58735387    -0.27100
N290        N  0.47249504  0.45180555  0.57423836    -0.34900
C291        C  0.45376930  0.43081050  0.57786283     0.01300
C292        C  0.45244869  0.42845770  0.59406723     0.07300
C293        C  0.47148292  0.44898810  0.59964265    -0.05800
H294        H  0.44187287  0.41829127  0.56933693     0.08000
H295        H  0.47694906  0.45351402  0.61171354     0.09200
Cu296      Cu  0.48416764  0.46667713  0.55219542     0.44200
Cu297      Cu  0.51365823  0.49506185  0.58808384     0.42000
Cu298      Cu  0.53897511  0.52397284  0.55178389     0.43900
N299        N  0.49924062  0.48673412  0.53217162    -0.34500
N300        N  0.51886633  0.50739032  0.53212483    -0.28700
C301        C  0.52342166  0.51577513  0.51740810    -0.04800
C302        C  0.50587770  0.49968588  0.50771389     0.07400
C303        C  0.49083602  0.48147947  0.51743629     0.01200
H304        H  0.53837383  0.53244806  0.51406188     0.08800
H305        H  0.47485465  0.46566440  0.51409735     0.07900
N306        N  0.55547516  0.53646486  0.57321720    -0.35900
N307        N  0.54573432  0.52585792  0.58655766    -0.28100
C308        C  0.56031390  0.53766232  0.59843305    -0.03300
C309        C  0.58028123  0.55675388  0.59234367     0.05300
C310        C  0.57667602  0.55533621  0.57625828     0.03400
H311        H  0.55680895  0.53227870  0.61057154     0.08500
H312        H  0.58848989  0.56719513  0.56743952     0.07300
N313        N  0.52389330  0.54376371  0.41213507    -0.27100
N314        N  0.53543797  0.55312999  0.42529480    -0.34900
C315        C  0.55474106  0.57385210  0.42201463     0.01300
C316        C  0.55534744  0.57767536  0.40597756     0.07300
C317        C  0.53551204  0.55814039  0.40014415    -0.05800
H318        H  0.56758503  0.58494359  0.43064797     0.08000
H319        H  0.52976344  0.55467091  0.38805924     0.09200
Cu320      Cu  0.52440623  0.53666237  0.44689084     0.44200
Cu321      Cu  0.49278494  0.51200740  0.41089257     0.42000
Cu322      Cu  0.46996622  0.47947653  0.44655037     0.43900
N323        N  0.50987654  0.51558346  0.46650260    -0.34500
N324        N  0.49032222  0.49487854  0.46636059    -0.28700
C325        C  0.48596499  0.48597820  0.48095619    -0.04800
C326        C  0.50358144  0.50182882  0.49073162     0.07400
C327        C  0.51844126  0.52037266  0.48119157     0.01200
H328        H  0.47098453  0.46926338  0.48419969     0.08800
H329        H  0.53428200  0.53624320  0.48465181     0.07900
N330        N  0.45287364  0.46840097  0.42513320    -0.35900
N331        N  0.46148100  0.48043834  0.41206115    -0.28100
C332        C  0.44668691  0.46898141  0.40019824    -0.03300
C333        C  0.42766935  0.44869780  0.40602707     0.05300
C334        C  0.43225668  0.44890609  0.42193008     0.03400
H335        H  0.44949332  0.47517209  0.38821982     0.08500
H336        H  0.42170462  0.43574490  0.43053129     0.07300
N337        N  0.00233144  0.30291741  0.67939124    -0.27100
N338        N  0.99000350  0.28003588  0.68159826    -0.34900
C339        C  0.00118802  0.27408858  0.69195642     0.01300
C340        C  0.02151840  0.29418396  0.69659260     0.07300
C341        C  0.02160083  0.31217027  0.68845277    -0.05800
H342        H  0.99469995  0.25644875  0.69603437     0.08000
H343        H  0.03490175  0.33056013  0.68885962     0.09200
Cu344      Cu  0.95784533  0.25786585  0.67118643     0.44200
Cu345      Cu  0.99246264  0.32007871  0.66373025     0.42000
Cu346      Cu  0.93527621  0.28332842  0.64504114     0.43900
N347        N  0.92443652  0.23935674  0.66174388    -0.34500
N348        N  0.91589570  0.24874437  0.65227884    -0.28700
C349        C  0.89372562  0.23245286  0.64854386    -0.04800
C350        C  0.88796546  0.21170918  0.65606126     0.07400
C351        C  0.90798848  0.21685856  0.66427957     0.01200
H352        H  0.88290895  0.23547382  0.64065458     0.08800
H353        H  0.91039819  0.20518051  0.67173174     0.07900
N354        N  0.95812182  0.31834248  0.63988532    -0.35900
N355        N  0.97866483  0.33172733  0.64666451    -0.28100
C356        C  0.98872909  0.35337896  0.64055685    -0.03300
C357        C  0.97377770  0.35368567  0.62941073     0.05300
C358        C  0.95461410  0.33109554  0.62930736     0.03400
H359        H  0.00586509  0.36763690  0.64384009     0.08500
H360        H  0.93903228  0.32440539  0.62220636     0.07300
N361        N  0.12469659  0.30214949  0.74642712    -0.27100
N362        N  0.11741866  0.30898670  0.75861913    -0.34900
C363        C  0.09819896  0.30943724  0.75437458     0.01300
C364        C  0.09319312  0.30237582  0.73880046     0.07300
C365        C  0.11033149  0.29783447  0.73424320    -0.05800
H366        H  0.08851133  0.31430716  0.76208662     0.08000
H367        H  0.11260177  0.29238178  0.72273710     0.09200
Cu368      Cu  0.13458232  0.31727946  0.78025370     0.44200
Cu369      Cu  0.15481726  0.30071800  0.74603260     0.42000
Cu370      Cu  0.19056146  0.31883581  0.78022478     0.43900
N371        N  0.15573515  0.32417859  0.79998627    -0.34500
N372        N  0.17588945  0.32482558  0.79984635    -0.28700
C373        C  0.18495264  0.32956924  0.81440305    -0.04800
C374        C  0.16982693  0.33197868  0.82422396     0.07400
C375        C  0.15149207  0.32846102  0.81470789     0.01200
H376        H  0.20131114  0.33099721  0.81759249     0.08800
H377        H  0.13615728  0.32892197  0.81821550     0.07900
N378        N  0.20089761  0.31124673  0.75916376    -0.35900
N379        N  0.18744014  0.30441004  0.74659263    -0.28100
C380        C  0.19857446  0.30090245  0.73474539    -0.03300
C381        C  0.22024110  0.30580934  0.74005931     0.05300
C382        C  0.22102958  0.31217859  0.75566648     0.03400
H383        H  0.19112786  0.29479033  0.72322187     0.08500
H384        H  0.23524313  0.31729673  0.76384367     0.07300
N385        N  0.21984470  0.36758174  0.91848609    -0.27100
N386        N  0.22694284  0.36153340  0.90581537    -0.34900
C387        C  0.24580097  0.36018932  0.90952580     0.01300
C388        C  0.25049614  0.36527236  0.92535574     0.07300
C389        C  0.23374411  0.37000403  0.93060358    -0.05800
H390        H  0.25501805  0.35526589  0.90140981     0.08000
H391        H  0.23177218  0.37494148  0.94234666     0.09200
Cu392      Cu  0.20938157  0.35389383  0.88449557     0.44200
Cu393      Cu  0.19089325  0.37106419  0.91913251     0.42000
Cu394      Cu  0.15267058  0.35005592  0.88568312     0.43900
N395        N  0.18739154  0.34565118  0.86522376    -0.34500
N396        N  0.16680379  0.34405657  0.86567998    -0.28700
C397        C  0.15735994  0.33885369  0.85121590    -0.04800
C398        C  0.17269441  0.33707052  0.84119199     0.07400
C399        C  0.19152066  0.34144644  0.85047178     0.01200
H400        H  0.14065697  0.33676505  0.84820879     0.08800
H401        H  0.20719058  0.34177043  0.84676942     0.07900
N402        N  0.14442809  0.36050959  0.90654680    -0.35900
N403        N  0.15911349  0.36924971  0.91847939    -0.28100
C404        C  0.14938313  0.37513875  0.93003140    -0.03300
C405        C  0.12738750  0.36971354  0.92522303     0.05300
C406        C  0.12472735  0.36031780  0.91030514     0.03400
H407        H  0.15747315  0.38216195  0.94128949     0.08500
H408        H  0.10968638  0.35401629  0.90270631     0.07300
N409        N  0.30921136  0.28180138  0.69387612    -0.27100
N410        N  0.31474713  0.30146478  0.68657960    -0.34900
C411        C  0.30289198  0.31063377  0.69304016     0.01300
C412        C  0.28933052  0.29627194  0.70512740     0.07300
C413        C  0.29376336  0.27811559  0.70537061    -0.05800
H414        H  0.30381199  0.32645985  0.68903844     0.08000
H415        H  0.28555331  0.26282719  0.71282194     0.09200
Cu416      Cu  0.33749904  0.31520761  0.66782635     0.44200
Cu417      Cu  0.32160739  0.26021608  0.68666021     0.42000
Cu418      Cu  0.36102355  0.28217179  0.65248450     0.43900
N419        N  0.36133732  0.32700128  0.64961492    -0.34500
N420        N  0.36999147  0.31470209  0.64376382    -0.28700
C421        C  0.38550198  0.32724235  0.63244206    -0.04800
C422        C  0.38671190  0.34855709  0.63115735     0.07400
C423        C  0.37117223  0.34776034  0.64229017     0.01200
H424        H  0.39582567  0.32162534  0.62611904     0.08800
H425        H  0.36751729  0.36139792  0.64504821     0.07900
N426        N  0.34963146  0.25022483  0.66319450    -0.35900
N427        N  0.33564230  0.24223192  0.67554767    -0.28100
C428        C  0.33198443  0.22098402  0.67924087    -0.03300
C429        C  0.34409176  0.21526001  0.66864598     0.05300
C430        C  0.35515421  0.23433946  0.65871891     0.03400
H431        H  0.32102655  0.21033448  0.68881184     0.08500
H432        H  0.36674694  0.23683194  0.64907113     0.07300
N433        N  0.30179127  0.11899797  0.25153524    -0.27100
N434        N  0.30660306  0.11148440  0.23852890    -0.34900
C435        C  0.30732105  0.09212068  0.24180921     0.01300
C436        C  0.30281123  0.08731453  0.25770083     0.07300
C437        C  0.29943369  0.10480059  0.26342183    -0.05800
H438        H  0.31162565  0.08280785  0.23334819     0.08000
H439        H  0.29568292  0.10718517  0.27540696     0.09200
Cu440      Cu  0.31306718  0.12913688  0.21733213     0.44200
Cu441      Cu  0.29977485  0.14884851  0.25288205     0.42000
Cu442      Cu  0.31702322  0.18624451  0.21902750     0.43900
N443        N  0.31940493  0.15070591  0.19807034    -0.34500
N444        N  0.32110516  0.17136495  0.19864258    -0.28700
C445        C  0.32514465  0.18037960  0.18405924    -0.04800
C446        C  0.32601205  0.16466014  0.17385500     0.07400
C447        C  0.32231588  0.14609004  0.18314542     0.01200
H448        H  0.32718622  0.19709418  0.18111462     0.08800
H449        H  0.32176206  0.13032010  0.17935851     0.07900
N450        N  0.30835239  0.19483744  0.24048421    -0.35900
N451        N  0.30107327  0.18048168  0.25261610    -0.28100
C452        C  0.29561325  0.19013392  0.26446814    -0.03300
C453        C  0.29992072  0.21178578  0.25969408     0.05300
C454        C  0.30802411  0.21425071  0.24440800     0.03400
H455        H  0.28936578  0.18214193  0.27584502     0.08500
H456        H  0.31286049  0.22881843  0.23661302     0.07300
N457        N  0.36842864  0.21515312  0.08053591    -0.27100
N458        N  0.35874452  0.22101468  0.09179886    -0.34900
C459        C  0.35799668  0.23991109  0.08714292     0.01300
C460        C  0.36787371  0.24627631  0.07230300     0.07300
C461        C  0.37440850  0.23026757  0.06857104    -0.05800
H462        H  0.35096365  0.24846541  0.09408915     0.08000
H463        H  0.38223889  0.22920170  0.05771172     0.09200
Cu464      Cu  0.34721178  0.20265771  0.11289758     0.44200
Cu465      Cu  0.37079959  0.18543509  0.08100881     0.33900
Cu466      Cu  0.34334072  0.14570323  0.11302014     0.43900
N467        N  0.33837002  0.18102765  0.13253327    -0.34500
N468        N  0.33670874  0.16037792  0.13238594    -0.28700
C469        C  0.33168844  0.15136590  0.14693604    -0.04800
C470        C  0.33017584  0.16704056  0.15677664     0.07400
C471        C  0.33446200  0.18564702  0.14726254     0.01200
H472        H  0.32989459  0.13485115  0.15016808     0.08800
H473        H  0.33517238  0.20157887  0.15082746     0.07900
N474        N  0.35555537  0.13727978  0.09314977    -0.35900
N475        N  0.36644894  0.15241155  0.08171081    -0.28100
C476        C  0.37304300  0.14248879  0.07073930    -0.03300
C477        C  0.36587748  0.11990079  0.07538619     0.05300
C478        C  0.35480907  0.11717872  0.08969846     0.03400
H479        H  0.38203608  0.15099312  0.05999532     0.08500
H480        H  0.34720675  0.10196830  0.09721523     0.07300
N481        N  0.30692766  0.99526873  0.31456953    -0.27100
N482        N  0.28820847  0.97990641  0.30662077    -0.34900
C483        C  0.28390054  0.99100148  0.29519413     0.01300
C484        C  0.30055848  0.01458625  0.29600806     0.07300
C485        C  0.31494019  0.01663193  0.30840848    -0.05800
H486        H  0.26929139  0.98256110  0.28716459     0.08000
H487        H  0.33023123  0.03242458  0.31260467     0.09200
Cu488      Cu  0.26841510  0.94474374  0.31187297     0.44200
Cu489      Cu  0.32102200  0.98654083  0.33331676     0.42000
Cu490      Cu  0.29131056  0.92435045  0.34152426     0.43900
N491        N  0.25069037  0.91083218  0.32008071    -0.34500
N492        N  0.25909654  0.90317528  0.33098568    -0.28700
C493        C  0.24319142  0.88067204  0.33411358    -0.04800
C494        C  0.22375219  0.87385862  0.32472064     0.07400
C495        C  0.22925531  0.89348022  0.31594195     0.01200
H496        H  0.24577465  0.87014030  0.34253648     0.08800
H497        H  0.21830977  0.89520924  0.30738039     0.07900
N498        N  0.32213399  0.94909280  0.35228341    -0.35900
N499        N  0.33273766  0.97189900  0.34985183    -0.28100
C500        C  0.35235980  0.98268835  0.35861745    -0.03300
C501        C  0.35427471  0.96576989  0.36673632     0.05300
C502        C  0.33473515  0.94474599  0.36246406     0.03400
H503        H  0.36491430  0.00129975  0.35845369     0.08500
H504        H  0.33016175  0.92743725  0.36626805     0.07300
N505        N  0.39428676  0.03981788  0.02221203    -0.27100
N506        N  0.37220233  0.03042999  0.01796048    -0.34900
C507        C  0.36229996  0.03992663  0.02662279     0.01300
C508        C  0.37905557  0.05628513  0.03668661     0.07300
C509        C  0.39911361  0.05570932  0.03357603    -0.05800
H510        H  0.34446495  0.03583335  0.02530046     0.08000
H511        H  0.41601679  0.06610844  0.03910837     0.09200
Cu512      Cu  0.35718488  0.00616517  0.99995159     0.44200
Cu513      Cu  0.41684854  0.03066224  0.01227376     0.42000
Cu514      Cu  0.39432699  0.98846225  0.98046238     0.43900
N515        N  0.34635626  0.98265399  0.98141387    -0.34500
N516        N  0.35986237  0.97645957  0.97414216    -0.28700
C517        C  0.34732419  0.96079883  0.96285898    -0.04800
C518        C  0.32482693  0.95690294  0.96306455     0.07400
C519        C  0.32488056  0.97100499  0.97503370     0.01200
H520        H  0.35391829  0.95226648  0.95547258     0.08800
H521        H  0.31032311  0.97259583  0.97891183     0.07900
N522        N  0.42763309  0.00231157  0.98990473    -0.35900
N523        N  0.43575732  0.01768576  0.00151421    -0.28100
C524        C  0.45723284  0.02231514  0.00542751    -0.03300
C525        C  0.46307944  0.00930697  0.99580171     0.05300
C526        C  0.44378488  0.99678740  0.98611487     0.03400
H527        H  0.46767322  0.03408081  0.01477295     0.08500
H528        H  0.44117570  0.98386515  0.97737975     0.07300
N529        N  0.27414377  0.29256346  0.31434513    -0.27100
N530        N  0.29675309  0.30304205  0.31736863    -0.34900
C531        C  0.30602536  0.29284283  0.30880269     0.01300
C532        C  0.28834698  0.27489979  0.30008178     0.07300
C533        C  0.26836598  0.27527398  0.30388861    -0.05800
H534        H  0.32421609  0.29782343  0.30913917     0.08000
H535        H  0.25096219  0.26409372  0.29924038     0.09200
Cu536      Cu  0.31360886  0.33002338  0.33352242     0.44200
Cu537      Cu  0.25237789  0.30266702  0.32433062     0.42000
Cu538      Cu  0.27727178  0.34714583  0.35460448     0.43900
N539        N  0.32578902  0.35481080  0.35133823    -0.34500
N540        N  0.31248541  0.36057436  0.35932327    -0.28700
C541        C  0.32566147  0.37667773  0.37020978    -0.04800
C542        C  0.34840983  0.38148059  0.36891512     0.07400
C543        C  0.34777657  0.36719910  0.35684966     0.01200
H544        H  0.31923789  0.38465933  0.37826140     0.08800
H545        H  0.36210588  0.36556956  0.35252097     0.07900
N546        N  0.24340226  0.33291597  0.34615160    -0.35900
N547        N  0.23450844  0.31678925  0.33502486    -0.28100
C548        C  0.21280487  0.31190799  0.33165349    -0.03300
C549        C  0.20758548  0.32553654  0.34112786     0.05300
C550        C  0.22750809  0.33870088  0.35017092     0.03400
H551        H  0.20165926  0.29930743  0.32289810     0.08500
H552        H  0.23062574  0.35204721  0.35869391     0.07300
N553        N  0.79384989  0.15047328  0.07613510    -0.27100
N554        N  0.78909719  0.13496315  0.08731139    -0.34900
C555        C  0.76958114  0.11476714  0.08341136     0.01300
C556        C  0.76160280  0.11793154  0.06919675     0.07300
C557        C  0.77744263  0.14074158  0.06492102    -0.05800
H558        H  0.76168840  0.09904308  0.09044983     0.08000
H559        H  0.77747054  0.14946023  0.05423834     0.09200
Cu560      Cu  0.80937808  0.14263260  0.10734470     0.44200
Cu561      Cu  0.82326150  0.18352856  0.07593592     0.42000
Cu562      Cu  0.86485000  0.19881163  0.10717301     0.43900
N563        N  0.83142610  0.15649720  0.12657506    -0.34500
N564        N  0.85148327  0.17675504  0.12656799    -0.28700
C565        C  0.86023717  0.18134745  0.14122993    -0.04800
C566        C  0.84492102  0.16319723  0.15089816     0.07400
C567        C  0.82693025  0.14771777  0.14120108     0.01200
H568        H  0.87609179  0.19719508  0.14469904     0.08800
H569        H  0.81122387  0.13170656  0.14461843     0.07900
N570        N  0.87150998  0.21916377  0.08713137    -0.35900
N571        N  0.85566341  0.21381525  0.07608424    -0.28100
C572        C  0.86463196  0.23023791  0.06485141    -0.03300
C573        C  0.88732654  0.24679144  0.06892837     0.05300
C574        C  0.89119030  0.23914481  0.08309044     0.03400
H575        H  0.85553167  0.22967329  0.05422131     0.08500
H576        H  0.90709586  0.24750814  0.08995097     0.07300
N577        N  0.88408357  0.18414897  0.24734391    -0.27100
N578        N  0.89332575  0.19713191  0.23470276    -0.34900
C579        C  0.91373076  0.21643757  0.23871239     0.01300
C580        C  0.91739118  0.21526161  0.25463915     0.07300
C581        C  0.89822120  0.19454366  0.25963548    -0.05800
H582        H  0.92526747  0.22990231  0.23057081     0.08000
H583        H  0.89471279  0.18748585  0.27140154     0.09200
Cu584      Cu  0.87746670  0.18640388  0.21280171     0.44200
Cu585      Cu  0.85301586  0.15263787  0.24770734     0.42000
Cu586      Cu  0.82186377  0.12859609  0.21224593     0.43900
N587        N  0.85794588  0.16978301  0.19279248    -0.34500
N588        N  0.83810687  0.14927868  0.19262660    -0.28700
C589        C  0.83053106  0.14382721  0.17772866    -0.04800
C590        C  0.84633220  0.16162645  0.16805842     0.07400
C591        C  0.86345731  0.17778904  0.17798996     0.01200
H592        H  0.81470356  0.12798360  0.17421461     0.08800
H593        H  0.87883156  0.19419021  0.17472379     0.07900
N594        N  0.81038629  0.11162703  0.23371705    -0.35900
N595        N  0.82209751  0.12100698  0.24680531    -0.28100
C596        C  0.81043497  0.10702067  0.25893099    -0.03300
C597        C  0.79032159  0.08768448  0.25327183     0.05300
C598        C  0.79086287  0.09114441  0.23717762     0.03400
H599        H  0.81615630  0.11077752  0.27101484     0.08500
H600        H  0.77770285  0.08009367  0.22869309     0.07300
N601        N  0.04317250  0.39559105  0.97539143    -0.27100
N602        N  0.03253216  0.37323762  0.97928404    -0.34900
C603        C  0.04236062  0.36300948  0.97135885     0.01300
C604        C  0.06017148  0.37974006  0.96207354     0.07300
C605        C  0.06018924  0.40020636  0.96497747    -0.05800
H606        H  0.03753349  0.34495954  0.97281065     0.08000
H607        H  0.07193582  0.41729972  0.96005394     0.09200
Cu608      Cu  0.00627815  0.35789923  0.99605070     0.44200
Cu609      Cu  0.03467765  0.41897857  0.98493388     0.42000
Cu610      Cu  0.98621493  0.39381272  0.01287574     0.43900
N611        N  0.98029528  0.34607156  0.01302945    -0.34500
N612        N  0.97229615  0.35902739  0.01878479    -0.28700
C613        C  0.95526794  0.34632592  0.02923212    -0.04800
C614        C  0.95270316  0.32442405  0.03030344     0.07400
C615        C  0.96882659  0.32487505  0.01983766     0.01200
H616        H  0.94588154  0.35276052  0.03585838     0.08800
H617        H  0.97182566  0.31076767  0.01719810     0.07900
N618        N  0.00440387  0.42864100  0.00629855    -0.35900
N619        N  0.02196137  0.43785545  0.99620405    -0.28100
C620        C  0.02913816  0.46057936  0.99420959    -0.03300
C621        C  0.01533817  0.46590470  0.00343403     0.05300
C622        C  0.00000610  0.44522759  0.01101728     0.03400
H623        H  0.04325761  0.47221552  0.98649706     0.08500
H624        H  0.98605274  0.44218008  0.01895885     0.07300
N625        N  0.64562333  0.95103086  0.35661467    -0.27100
N626        N  0.65055440  0.97008233  0.34875740    -0.34900
C627        C  0.63797319  0.97885788  0.35462915     0.01300
C628        C  0.62427818  0.96463612  0.36678828     0.07300
C629        C  0.62977376  0.94725749  0.36780735    -0.05800
H630        H  0.63881244  0.99448554  0.35029400     0.08000
H631        H  0.62218195  0.93248485  0.37571721     0.09200
Cu632      Cu  0.67336960  0.98299659  0.32996561     0.44200
Cu633      Cu  0.65931290  0.93019791  0.35057169     0.42000
Cu634      Cu  0.69526011  0.94733128  0.31506508     0.43900
N635        N  0.69661055  0.99288870  0.31145775    -0.34500
N636        N  0.70437510  0.97970415  0.30575499    -0.28700
C637        C  0.71975007  0.99144587  0.29419031    -0.04800
C638        C  0.72197692  0.01317946  0.29268575     0.07400
C639        C  0.70692732  0.01340306  0.30379031     0.01200
H640        H  0.72939176  0.98505275  0.28783307     0.08800
H641        H  0.70383478  0.02748340  0.30629027     0.07900
N642        N  0.68504236  0.91677523  0.32751504    -0.35900
N643        N  0.67229518  0.91070614  0.34045765    -0.28100
C644        C  0.66872718  0.88998196  0.34540990    -0.03300
C645        C  0.67984998  0.88259942  0.33517569     0.05300
C646        C  0.68991721  0.90009143  0.32392853     0.03400
H647        H  0.65872423  0.88096324  0.35574196     0.08500
H648        H  0.69958708  0.90053603  0.31362031     0.07300
N649        N  0.46494863  0.97873132  0.41012869    -0.27100
N650        N  0.45863542  0.98597239  0.42259622    -0.34900
C651        C  0.43883398  0.98581272  0.41931151     0.01300
C652        C  0.43234397  0.97804246  0.40400171     0.07300
C653        C  0.44929151  0.97360629  0.39862507    -0.05800
H654        H  0.42974209  0.99068993  0.42755919     0.08000
H655        H  0.45044805  0.96754075  0.38705982     0.09200
Cu656      Cu  0.47749502  0.99548310  0.44339073     0.44200
Cu657      Cu  0.49505507  0.97699796  0.40910260     0.42000
Cu658      Cu  0.53005433  0.99115320  0.44421726     0.43900
N659        N  0.49860737  0.00266407  0.46296913    -0.34500
N660        N  0.51753102  0.00103485  0.46333056    -0.28700
C661        C  0.52640051  0.00594458  0.47795532    -0.04800
C662        C  0.51234577  0.01077833  0.48722771     0.07400
C663        C  0.49494902  0.00859623  0.47733382     0.01200
H664        H  0.54162655  0.00544653  0.48163896     0.08800
H665        H  0.48034666  0.01059243  0.48041156     0.07900
N666        N  0.53880863  0.98176350  0.42309772    -0.35900
N667        N  0.52610265  0.97705322  0.41023845    -0.28100
C668        C  0.53669300  0.97272163  0.39841188    -0.03300
C669        C  0.55701257  0.97455048  0.40404684     0.05300
C670        C  0.55777901  0.98033516  0.41979024     0.03400
H671        H  0.53002163  0.96850870  0.38655033     0.08500
H672        H  0.57145174  0.98401508  0.42812513     0.07300
N673        N  0.55060891  0.02648136  0.58408128    -0.27100
N674        N  0.55973659  0.02437747  0.57087177    -0.34900
C675        C  0.57920604  0.02394953  0.57422595     0.01300
C676        C  0.58244463  0.02572414  0.59038215     0.07300
C677        C  0.56392618  0.02738924  0.59618959    -0.05800
H678        H  0.59020517  0.02248823  0.56552336     0.08000
H679        H  0.56068785  0.02989264  0.60826042     0.09200
Cu680      Cu  0.54497714  0.02261027  0.54906641     0.44200
Cu681      Cu  0.52096163  0.02898974  0.58485752     0.42000
Cu682      Cu  0.49155590  0.02588742  0.54851389     0.43900
N683        N  0.52637570  0.02027649  0.52891160    -0.34500
N684        N  0.50707892  0.02126554  0.52866816    -0.28700
C685        C  0.49936347  0.01846897  0.51377581    -0.04800
C686        C  0.51448646  0.01556563  0.50422735     0.07400
C687        C  0.53139397  0.01684199  0.51420991     0.01200
H688        H  0.48368839  0.01820224  0.51021992     0.08800
H689        H  0.54607014  0.01499293  0.51108573     0.07900
N690        N  0.48086857  0.03120806  0.57034271    -0.35900
N691        N  0.49167164  0.03204159  0.58352363    -0.28100
C692        C  0.48056811  0.03499718  0.59564614    -0.03300
C693        C  0.46188473  0.03626363  0.58992628     0.05300
C694        C  0.46260610  0.03380887  0.57378183     0.03400
H695        H  0.48574190  0.03610976  0.60778788     0.08500
H696        H  0.45041705  0.03326457  0.56521122     0.07300
N697        N  0.98662291  0.46359349  0.58489127    -0.27100
N698        N  0.98624580  0.45297219  0.57169338    -0.34900
C699        C  0.98442519  0.43243302  0.57514527     0.01300
C700        C  0.98362864  0.43005384  0.59133323     0.07300
C701        C  0.98517367  0.45022444  0.59709082    -0.05800
H702        H  0.98402946  0.42035466  0.56648400     0.08000
H703        H  0.98477002  0.45466905  0.60926097     0.09200
Cu704      Cu  0.98813061  0.46718152  0.54975009     0.44200
Cu705      Cu  0.98774787  0.49509236  0.58575687     0.42000
Cu706      Cu  0.98525273  0.52055951  0.54921457     0.43900
N707        N  0.99045181  0.48558759  0.52958283    -0.34500
N708        N  0.98929331  0.50479572  0.52935509    -0.28700
C709        C  0.99228007  0.51266963  0.51451821    -0.04800
C710        C  0.99553323  0.49775857  0.50499186     0.07400
C711        C  0.99421762  0.48077177  0.51491446     0.01200
H712        H  0.99263309  0.52841568  0.51101480     0.08800
H713        H  0.99635031  0.46625101  0.51179106     0.07900
N714        N  0.98342269  0.53360895  0.57101123    -0.35900
N715        N  0.98499718  0.52447768  0.58434386    -0.28100
C716        C  0.98359834  0.53671728  0.59639271    -0.03300
C717        C  0.98104520  0.55453466  0.59041744     0.05300
C718        C  0.98083314  0.55191654  0.57425349     0.03400
H719        H  0.98382025  0.53248824  0.60860151     0.08500
H720        H  0.97917217  0.56266756  0.56549605     0.07300
N721        N  0.02891158  0.54453924  0.41012869    -0.27100
N722        N  0.02376145  0.55238045  0.42283401    -0.34900
C723        C  0.02578062  0.57307723  0.41953016     0.01300
C724        C  0.03262418  0.57852416  0.40397495     0.07300
C725        C  0.03448773  0.56001043  0.39845772    -0.05800
H726        H  0.02294272  0.58352905  0.42794579     0.08000
H727        H  0.03927541  0.55776507  0.38673082     0.09200
Cu728      Cu  0.01502512  0.53450020  0.44403995     0.44200
Cu729      Cu  0.02810721  0.51317184  0.40909526     0.42000
Cu730      Cu  0.01819797  0.48114950  0.44494190     0.43900
N731        N  0.00862936  0.51387909  0.46381973    -0.34500
N732        N  0.01005842  0.49482330  0.46416634    -0.28700
C733        C  0.00532690  0.48603215  0.47878669    -0.04800
C734        C  0.00073281  0.50021826  0.48808257     0.07400
C735        C  0.00296184  0.51768226  0.47822829     0.01200
H736        H  0.00542280  0.47054907  0.48238189     0.08800
H737        H  0.00090415  0.53225921  0.48131783     0.07900
N738        N  0.02399074  0.47007723  0.42353068    -0.35900
N739        N  0.02702438  0.48169594  0.41036316    -0.28100
C740        C  0.02953989  0.46998179  0.39843639    -0.03300
C741        C  0.02825814  0.45005094  0.40433352     0.05300
C742        C  0.02467867  0.45066053  0.42033214     0.03400
H743        H  0.03247498  0.47579334  0.38636680     0.08500
H744        H  0.02226415  0.43777985  0.42898301     0.07300
N745        N  0.95296783  0.63892177  0.63904304    -0.27100
N746        N  0.97456184  0.64814216  0.64431062    -0.34900
C747        C  0.98489240  0.63803927  0.63688722     0.01300
C748        C  0.96909828  0.62161573  0.62636256     0.07300
C749        C  0.94899961  0.62269714  0.62807842    -0.05800
H750        H  0.00250250  0.64206916  0.63924137     0.08000
H751        H  0.93234960  0.61179043  0.62234874     0.09200
Cu752      Cu  0.98852269  0.67279950  0.66217703     0.44200
Cu753      Cu  0.92963130  0.64791333  0.64794417     0.42000
Cu754      Cu  0.95066614  0.68977054  0.68043531     0.43900
N755        N  0.99866749  0.69625429  0.68073217    -0.34500
N756        N  0.98480793  0.70242859  0.68745659    -0.28700
C757        C  0.99670060  0.71816083  0.69883223    -0.04800
C758        C  0.01921039  0.72209082  0.69935600     0.07400
C759        C  0.01975652  0.70788447  0.68765027     0.01200
H760        H  0.98960536  0.72664486  0.70577295     0.08800
H761        H  0.03445158  0.70619387  0.68430335     0.07900
N762        N  0.91745632  0.67469495  0.67093206    -0.35900
N763        N  0.90986832  0.65970276  0.65908695    -0.28100
C764        C  0.88785681  0.65382745  0.65561550    -0.03300
C765        C  0.88126339  0.66572525  0.66573721     0.05300
C766        C  0.90046394  0.67866531  0.67533882     0.03400
H767        H  0.87742038  0.64160358  0.64647431     0.08500
H768        H  0.90217337  0.69050224  0.68465756     0.07300
N769        N  0.15242440  0.79197830  0.91874607    -0.27100
N770        N  0.13800801  0.78557702  0.90666287    -0.34900
C771        C  0.11829948  0.76532427  0.91017846     0.01300
C772        C  0.12066531  0.75871015  0.92513078     0.07300
C773        C  0.14252312  0.77597086  0.93014720    -0.05800
H774        H  0.10361025  0.75592939  0.90231548     0.08000
H775        H  0.15049628  0.77709452  0.94140734     0.09200
Cu776      Cu  0.14662310  0.80431079  0.88580416     0.44200
Cu777      Cu  0.18429144  0.82264269  0.91996814     0.42000
Cu778      Cu  0.20379509  0.85855998  0.88574445     0.43900
N779        N  0.16171096  0.82503552  0.86606473    -0.34500
N780        N  0.18246906  0.84452905  0.86605130    -0.28700
C781        C  0.18741497  0.85317776  0.85138841    -0.04800
C782        C  0.16897311  0.83844098  0.84169302     0.07400
C783        C  0.15297114  0.82078829  0.85139173     0.01200
H784        H  0.20342846  0.86891019  0.84801557     0.08800
H785        H  0.13634522  0.80577584  0.84801549     0.07900
N786        N  0.22128152  0.86894133  0.90716048    -0.35900
N787        N  0.21369599  0.85558709  0.91976981    -0.28100
C788        C  0.22788709  0.86699844  0.93191009    -0.03300
C789        C  0.24542667  0.88867489  0.92673227     0.05300
C790        C  0.24079834  0.88924736  0.91092877     0.03400
H791        H  0.22577755  0.85977399  0.94355340     0.08500
H792        H  0.25073185  0.90346471  0.90282163     0.07300
N793        N  0.19471360  0.88212521  0.74602614    -0.27100
N794        N  0.20566296  0.89143407  0.75936691    -0.34900
C795        C  0.22539396  0.91195865  0.75626941     0.01300
C796        C  0.22685292  0.91559903  0.74015224     0.07300
C797        C  0.20706656  0.89624484  0.73412827    -0.05800
H798        H  0.23787149  0.92308547  0.76507362     0.08000
H799        H  0.20179261  0.89275411  0.72195389     0.09200
Cu800      Cu  0.19258432  0.87488329  0.78081077     0.44200
Cu801      Cu  0.16324730  0.85093277  0.74431107     0.42000
Cu802      Cu  0.13549288  0.81945310  0.77957400     0.43900
N803        N  0.17550931  0.85422796  0.80027582    -0.34500
N804        N  0.15505415  0.83436304  0.79991998    -0.28700
C805        C  0.14947780  0.82571774  0.81459433    -0.04800
C806        C  0.16724124  0.84083173  0.82462099     0.07400
C807        C  0.18340971  0.85866620  0.81513588     0.01200
H808        H  0.13371475  0.80955053  0.81770008     0.08800
H809        H  0.19981891  0.87377013  0.81873751     0.07900
N810        N  0.12055177  0.80867065  0.75737128    -0.35900
N811        N  0.13116624  0.82025117  0.74447362    -0.28100
C812        C  0.11771033  0.80908333  0.73198531    -0.03300
C813        C  0.09752793  0.78937099  0.73719194     0.05300
C814        C  0.09985477  0.78977516  0.75339399     0.03400
H815        H  0.12219880  0.81521907  0.72003817     0.08500
H816        H  0.08756059  0.77709882  0.76165838     0.07300
N817        N  0.37622999  0.05988263  0.64082505    -0.27100
N818        N  0.36820146  0.03865085  0.64648363    -0.34900
C819        C  0.37947453  0.02916922  0.63950727     0.01300
C820        C  0.39551373  0.04519715  0.62892845     0.07300
C821        C  0.39280450  0.06442368  0.63003050    -0.05800
H822        H  0.37608417  0.01180205  0.64197516     0.08000
H823        H  0.40261906  0.08078509  0.62376610     0.09200
Cu824      Cu  0.34300989  0.02375133  0.66395816     0.44200
Cu825      Cu  0.36512203  0.08205854  0.64887405     0.42000
Cu826      Cu  0.32605808  0.06108002  0.68282198     0.43900
N827        N  0.31950054  0.01303275  0.68248583    -0.34500
N828        N  0.31353579  0.02678739  0.68963825    -0.28700
C829        C  0.29816076  0.01464462  0.70113378    -0.04800
C830        C  0.29408008  0.99204625  0.70114569     0.07400
C831        C  0.30806234  0.99178132  0.68918478     0.01200
H832        H  0.29010502  0.02159977  0.70866179     0.08800
H833        H  0.31007671  0.97734494  0.68565064     0.07900
N834        N  0.33940441  0.09392660  0.67290337    -0.35900
N835        N  0.35314657  0.10143812  0.66042649    -0.28100
C836        C  0.35793799  0.12313328  0.65690635    -0.03300
C837        C  0.34684255  0.12970337  0.66775736     0.05300
C838        C  0.33517587  0.11062447  0.67766011     0.03400
H839        H  0.36885652  0.13342792  0.64721218     0.08500
H840        H  0.32384346  0.10861221  0.68736728     0.07300
N841        N  0.05390223  0.36351701  0.35650924    -0.27100
N842        N  0.03418273  0.35712492  0.34899327    -0.34900
C843        C  0.02467156  0.36905484  0.35488774     0.01300
C844        C  0.03909336  0.38376225  0.36667085     0.07300
C845        C  0.05739910  0.37965107  0.36741005    -0.05800
H846        H  0.00823070  0.36681383  0.35100730     0.08000
H847        H  0.07234616  0.38798433  0.37516820     0.09200
Cu848      Cu  0.02053706  0.33218614  0.33122331     0.44200
Cu849      Cu  0.07529080  0.35014947  0.35166660     0.42000
Cu850      Cu  0.05168359  0.30204428  0.32432508     0.43900
N851        N  0.00994287  0.30525311  0.31500621    -0.34500
N852        N  0.02089368  0.29362557  0.31309870    -0.28700
C853        C  0.00939180  0.27660478  0.30242230    -0.04800
C854        C  0.99038156  0.27766792  0.29722943     0.07400
C855        C  0.99128902  0.29610251  0.30538255     0.01200
H856        H  0.01468757  0.26455159  0.29858253     0.08800
H857        H  0.97898332  0.30202153  0.30467209     0.07900
N858        N  0.08439065  0.31620072  0.33441620    -0.35900
N859        N  0.09317214  0.33388782  0.34442457    -0.28100
C860        C  0.11505673  0.33960154  0.34818574    -0.03300
C861        C  0.12041704  0.32497369  0.33999792     0.05300
C862        C  0.10044080  0.31026281  0.33146180     0.03400
H863        H  0.12647057  0.35383109  0.35594129     0.08500
H864        H  0.09768495  0.29628843  0.32361627     0.07300
C865        C  0.24527168  0.93532107  0.73085452    -0.05200
C866        C  0.24968164  0.93094952  0.71548717    -0.32700
C867        C  0.26577647  0.94908180  0.70584619     0.36600
C868        C  0.27771749  0.97233778  0.71139675    -0.05600
C869        C  0.27347825  0.97677022  0.72682479    -0.32600
C870        C  0.25763594  0.95847403  0.73659917     0.36500
H871        H  0.24049929  0.91331117  0.71080606     0.16800
O872        O  0.26854999  0.94397159  0.69068718    -0.60100
H873        H  0.28248659  0.99449664  0.73135596     0.16900
O874        O  0.25345595  0.96363427  0.75139013    -0.60200
H875        H  0.26686119  0.96595173  0.75780884     0.43900
H876        H  0.27789183  0.93629933  0.69145552     0.43800
C877        C  0.03903611  0.73901407  0.70933224    -0.05200
C878        C  0.06196142  0.74911251  0.70357570    -0.32700
C879        C  0.08110122  0.76556982  0.71243822     0.36600
C880        C  0.07762019  0.77192375  0.72754485    -0.05600
C881        C  0.05477311  0.76146977  0.73347071    -0.32600
C882        C  0.03555488  0.74535741  0.72445979     0.36500
H883        H  0.06515328  0.74455996  0.69201284     0.16800
O884        O  0.10320525  0.77451845  0.70648359    -0.60100
H885        H  0.05172113  0.76603893  0.74507406     0.16900
O886        O  0.01358510  0.73520938  0.73084395    -0.60200
H887        H  0.00950779  0.74755874  0.73066550     0.43900
H888        H  0.10479949  0.78564347  0.69818378     0.43800
C889        C  0.03029264  0.43225739  0.39516880    -0.05200
C890        C  0.02218987  0.42763318  0.37962591    -0.32700
C891        C  0.02485883  0.41190442  0.37027427     0.36600
C892        C  0.03576878  0.40031157  0.37639717    -0.05600
C893        C  0.04392771  0.40494820  0.39194615    -0.32600
C894        C  0.04108371  0.42059718  0.40136124     0.36500
H895        H  0.01382689  0.43637309  0.37461679     0.16800
O896        O  0.01733173  0.40859329  0.35501260    -0.60100
H897        H  0.05246534  0.39633581  0.39687930     0.16900
O898        O  0.05005867  0.42529828  0.41627809    -0.60200
H899        H  0.03879925  0.41164286  0.42263878     0.43900
H900        H  0.03109624  0.42013315  0.34884897     0.43800
C901        C  0.97241617  0.60494050  0.61672721    -0.05200
C902        C  0.98766189  0.59780188  0.62204582    -0.32700
C903        C  0.99062327  0.58146525  0.61361892     0.36600
C904        C  0.97852072  0.57215735  0.59941539    -0.05600
C905        C  0.96372440  0.57969774  0.59385212    -0.32600
C906        C  0.96056347  0.59587122  0.60238316     0.36500
H907        H  0.99707919  0.60454851  0.63296844     0.16800
O908        O  0.00615259  0.57546881  0.61905577    -0.60100
H909        H  0.95430586  0.57279558  0.58293866     0.16900
O910        O  0.94604776  0.60283298  0.59646173    -0.60200
H911        H  0.95629553  0.61692230  0.59010653     0.43900
H912        H  0.99838674  0.56520193  0.62822426     0.43800
C913        C  0.44440232  0.03831833  0.59945523    -0.05200
C914        C  0.43781835  0.02721314  0.61410903    -0.32700
C915        C  0.42197351  0.02923364  0.62375380     0.36600
C916        C  0.41229671  0.04263841  0.61887164    -0.05600
C917        C  0.41904569  0.05395365  0.60425070    -0.32600
C918        C  0.43475608  0.05168223  0.59449926     0.36500
H919        H  0.44500173  0.01683892  0.61815761     0.16800
O920        O  0.41658714  0.01844853  0.63810163    -0.60100
H921        H  0.41197004  0.06445221  0.60027325     0.16900
O922        O  0.44142330  0.06352546  0.58053291    -0.60200
H923        H  0.42828661  0.05410373  0.57321899     0.43900
H924        H  0.42814977  0.03025986  0.64547522     0.43800
C925        C  0.57446152  0.97201859  0.39478850    -0.05200
C926        C  0.57793273  0.97857501  0.37892137    -0.32700
C927        C  0.59393642  0.97618209  0.36970150     0.36600
C928        C  0.60696204  0.96706574  0.37626672    -0.05600
C929        C  0.60323516  0.96012076  0.39206370    -0.32600
C930        C  0.58734015  0.96274903  0.40135420     0.36500
H931        H  0.56825146  0.98572514  0.37359394     0.16800
O932        O  0.59626082  0.98237248  0.35418426    -0.60100
H933        H  0.61289126  0.95288658  0.39731509     0.16900
O934        O  0.58376843  0.95520268  0.41660982    -0.60200
H935        H  0.59760261  0.96734713  0.42245499     0.43900
H936        H  0.58540613  0.96772435  0.34848844     0.43800
C937        C  0.93736628  0.23170137  0.26458194    -0.05200
C938        C  0.94452126  0.22262504  0.27673063    -0.32700
C939        C  0.96209360  0.23745331  0.28719400     0.36600
C940        C  0.97247839  0.26183954  0.28587834    -0.05600
C941        C  0.96551101  0.27103339  0.27370697    -0.32600
C942        C  0.94836557  0.25614998  0.26290288     0.36500
H943        H  0.93635219  0.20388359  0.27820734     0.16800
O944        O  0.96797969  0.22790744  0.29925763    -0.60100
H945        H  0.97344711  0.28979902  0.27254617     0.16900
O946        O  0.94157377  0.26564169  0.25134950    -0.60200
H947        H  0.95359898  0.27050896  0.24301373     0.43900
H948        H  0.97826080  0.22290898  0.29447865     0.43800
C949        C  0.73841833  0.03250531  0.28231487    -0.05200
C950        C  0.74309879  0.02740096  0.26722543    -0.32700
C951        C  0.75944460  0.04521553  0.25742063     0.36600
C952        C  0.77183947  0.06852688  0.26281655    -0.05600
C953        C  0.76707156  0.07360933  0.27788596    -0.32600
C954        C  0.75037014  0.05592347  0.28753624     0.36500
H955        H  0.73412261  0.00949066  0.26303022     0.16800
O956        O  0.76417594  0.03944079  0.24299577    -0.60100
H957        H  0.77635640  0.09142495  0.28226119     0.16900
O958        O  0.74699662  0.06156416  0.30240694    -0.60200
H959        H  0.73747823  0.06896554  0.30104953     0.43900
H960        H  0.75099025  0.03676137  0.23619703     0.43800
C961        C  0.90416216  0.26725675  0.05952709    -0.05200
C962        C  0.92744516  0.27286060  0.05829897    -0.32700
C963        C  0.94335636  0.29125376  0.04867698     0.36600
C964        C  0.93625496  0.30483895  0.04047674    -0.05600
C965        C  0.91315257  0.29968269  0.04207562    -0.32600
C966        C  0.89709519  0.28093399  0.05137731     0.36500
H967        H  0.93320564  0.26259811  0.06452253     0.16800
O968        O  0.96604174  0.29639655  0.04785102    -0.60100
H969        H  0.90742001  0.30999255  0.03587898     0.16900
O970        O  0.87459618  0.27627277  0.05251622    -0.60200
H971        H  0.87455714  0.28524890  0.06180522     0.43900
H972        H  0.96565299  0.28434825  0.04079556     0.43800
C973        C  0.18562873  0.32612207  0.34097895    -0.05200
C974        C  0.17220438  0.31989868  0.32718507    -0.32700
C975        C  0.15111951  0.31959731  0.32665207     0.36600
C976        C  0.14288574  0.32548339  0.34010612    -0.05600
C977        C  0.15644379  0.33208941  0.35383091    -0.32600
C978        C  0.17750918  0.33227082  0.35439379     0.36500
H979        H  0.17816254  0.31547278  0.31663147     0.16800
O980        O  0.13898715  0.31392411  0.31278912    -0.60100
H981        H  0.15041955  0.33659540  0.36432484     0.16900
O982        O  0.18960178  0.33789255  0.36826219    -0.60200
H983        H  0.18380618  0.32275964  0.37370548     0.43900
H984        H  0.14426889  0.32906808  0.30752656     0.43800
C985        C  0.26541897  0.90675501  0.93594880    -0.05200
C986        C  0.28757519  0.91941843  0.92894498    -0.32700
C987        C  0.30710309  0.93569018  0.93762698     0.36600
C988        C  0.30453768  0.94002565  0.95348025    -0.05600
C989        C  0.28221209  0.92793421  0.96032555    -0.32600
C990        C  0.26280841  0.91119592  0.95177674     0.36500
H991        H  0.28989736  0.91631624  0.91677441     0.16800
O992        O  0.32843352  0.94790595  0.93033365    -0.60100
H993        H  0.27982467  0.93108583  0.97247198     0.16900
O994        O  0.24123130  0.89995095  0.95882068    -0.60200
H995        H  0.24151255  0.88858553  0.96615099     0.43900
H996        H  0.33384846  0.93664689  0.92922278     0.43800
C997        C  0.37408606  0.96894780  0.37644774    -0.05200
C998        C  0.38450243  0.98711022  0.38754286    -0.32700
C999        C  0.40307767  0.98998396  0.39695301     0.36600
C1000       C  0.41188219  0.97490650  0.39502854    -0.05600
C1001       C  0.40151794  0.95692400  0.38381696    -0.32600
C1002       C  0.38284748  0.95387338  0.37461400     0.36500
H1003       H  0.37809908  0.99897590  0.38901246     0.16800
O1004       O  0.41322736  0.00827134  0.40738685    -0.60100
H1005       H  0.40794158  0.94511729  0.38212098     0.16900
O1006       O  0.37371729  0.93643466  0.36352902    -0.60200
H1007       H  0.38270797  0.94382497  0.35381236     0.43900
H1008       H  0.40237621  0.00323097  0.41646952     0.43800
C1009       C  0.37643391  0.07219975  0.04747303    -0.05200
C1010       C  0.35606321  0.06370638  0.05654610    -0.32700
C1011       C  0.35276372  0.07876783  0.06629316     0.36600
C1012       C  0.36964838  0.10288949  0.06662262    -0.05600
C1013       C  0.39010409  0.11123655  0.05766706    -0.32600
C1014       C  0.39370875  0.09610640  0.04832188     0.36500
H1015       H  0.34261528  0.04533816  0.05602988     0.16800
O1016       O  0.33237296  0.06996527  0.07465585    -0.60100
H1017       H  0.40336524  0.12967805  0.05779827     0.16900
O1018       O  0.41347470  0.10517283  0.03924363    -0.60200
H1019       H  0.42612289  0.10768033  0.04652482     0.43900
H1020       H  0.33450389  0.06236568  0.08396544     0.43800
C1021       C  0.30286961  0.06863196  0.26706611    -0.05200
C1022       C  0.30983391  0.07308236  0.28285982    -0.32700
C1023       C  0.30935587  0.05578060  0.29232631     0.36600
C1024       C  0.30188072  0.03343135  0.28608679    -0.05600
C1025       C  0.29484246  0.02887752  0.27029991    -0.32600
C1026       C  0.29549556  0.04630757  0.26076012     0.36500
H1027       H  0.31566926  0.09010553  0.28797872     0.16800
O1028       O  0.31557883  0.06078522  0.30780124    -0.60100
H1029       H  0.28886521  0.01175034  0.26529590     0.16900
O1030       O  0.28774370  0.04093377  0.24557024    -0.60200
H1031       H  0.30057904  0.04090133  0.23971227     0.43900
H1032       H  0.30073519  0.05564107  0.31349918     0.43800
C1033       C  0.29649505  0.22839048  0.26917726    -0.05200
C1034       C  0.27646011  0.21984793  0.27859242    -0.32700
C1035       C  0.27321107  0.23489185  0.28833534     0.36600
C1036       C  0.29055162  0.25881943  0.28917109    -0.05600
C1037       C  0.31060111  0.26735755  0.27974672    -0.32600
C1038       C  0.31346384  0.25242782  0.26960843     0.36500
H1039       H  0.26325997  0.20138071  0.27842543     0.16800
O1040       O  0.25371578  0.22575586  0.29768715    -0.60100
H1041       H  0.32410286  0.28570673  0.28021026     0.16900
O1042       O  0.33354650  0.26124527  0.26089297    -0.60200
H1043       H  0.33105992  0.26879778  0.25172467     0.43900
H1044       H  0.24081871  0.22319719  0.29061035     0.43800
C1045       C  0.34519215  0.19358844  0.66824661    -0.05200
C1046       C  0.34345808  0.18192845  0.68231880    -0.32700
C1047       C  0.34420306  0.16131584  0.68238899     0.36600
C1048       C  0.34664058  0.15186391  0.66817872    -0.05600
C1049       C  0.34860634  0.16365026  0.65411426    -0.32600
C1050       C  0.34793305  0.18430534  0.65404764     0.36500
H1051       H  0.34184580  0.18898155  0.69339758     0.16800
O1052       O  0.34367219  0.15121810  0.69649383    -0.60100
H1053       H  0.35017197  0.15658483  0.64302822     0.16900
O1054       O  0.34868136  0.19450868  0.63994444    -0.60200
H1055       H  0.36517486  0.20206379  0.63640445     0.43900
H1056       H  0.32733658  0.14401682  0.70027613     0.43800
C1057       C  0.11017674  0.37252116  0.93439357    -0.05200
C1058       C  0.08673452  0.35426213  0.93484084    -0.32700
C1059       C  0.07027337  0.35625057  0.94387521     0.36600
C1060       C  0.07705014  0.37700013  0.95235220    -0.05600
C1061       C  0.10044079  0.39539926  0.95163959    -0.32600
C1062       C  0.11701619  0.39313989  0.94297953     0.36500
H1063       H  0.08124604  0.33822573  0.92838236     0.16800
O1064       O  0.04760107  0.33788047  0.94419912    -0.60100
H1065       H  0.10605741  0.41146391  0.95808781     0.16900
O1066       O  0.13968676  0.41153011  0.94250318    -0.60200
H1067       H  0.14663809  0.41107339  0.95268002     0.43900
H1068       H  0.03971262  0.34081441  0.93544433     0.43800
C1069       C  0.23827607  0.30389650  0.73112759    -0.05200
C1070       C  0.25258908  0.29735185  0.73888361    -0.32700
C1071       C  0.26911116  0.29448699  0.73057400     0.36600
C1072       C  0.27191527  0.29873523  0.71432584    -0.05600
C1073       C  0.25810837  0.30591706  0.70666795    -0.32600
C1074       C  0.24125341  0.30827043  0.71485559     0.36500
H1075       H  0.25070249  0.29402300  0.75138758     0.16800
O1076       O  0.28311407  0.28854627  0.73854290    -0.60100
H1077       H  0.26017309  0.30946635  0.69418624     0.16900
O1078       O  0.22856384  0.31590145  0.70694910    -0.60200
H1079       H  0.21742680  0.30250147  0.70031158     0.43900
H1080       H  0.27334200  0.27142142  0.74017673     0.43800
C1081       C  0.97714196  0.37352135  0.61957750    -0.05200
C1082       C  0.96606647  0.36891366  0.60488799    -0.32700
C1083       C  0.96827794  0.38708901  0.59545144     0.36600
C1084       C  0.98159165  0.41043010  0.60069863    -0.05600
C1085       C  0.99266021  0.41507665  0.61537166    -0.32600
C1086       C  0.99056588  0.39693074  0.62477030     0.36500
H1087       H  0.95560352  0.35111071  0.60062651     0.16800
O1088       O  0.95626496  0.38169362  0.58154642    -0.60100
H1089       H  0.00300973  0.43290655  0.61962214     0.16900
O1090       O  0.00125823  0.40235007  0.63916015    -0.60200
H1091       H  0.98945451  0.40165543  0.64656345     0.43900
H1092       H  0.96517045  0.37761771  0.57418525     0.43800
C1093       C  0.03939113  0.29595810  0.70770948    -0.05200
C1094       C  0.04992028  0.31461531  0.71846032    -0.32700
C1095       C  0.06687382  0.31654286  0.72909055     0.36600
C1096       C  0.07401839  0.30002679  0.72874605    -0.05600
C1097       C  0.06359488  0.28152254  0.71790301    -0.32600
C1098       C  0.04625894  0.27923828  0.70759306     0.36500
H1099       H  0.04489471  0.32767241  0.71868332     0.16800
O1100       O  0.07727596  0.33533474  0.73911368    -0.60100
H1101       H  0.06893895  0.26871606  0.71738283     0.16900
O1102       O  0.03714600  0.26136658  0.69681504    -0.60200
H1103       H  0.02619302  0.24712204  0.70281788     0.43900
H1104       H  0.06599313  0.33133757  0.74782329     0.43800
C1105       C  0.40727754  0.43082944  0.39688921    -0.05200
C1106       C  0.41021623  0.42754621  0.38094383    -0.32700
C1107       C  0.39134134  0.41138439  0.37176310     0.36600
C1108       C  0.36886169  0.39828491  0.37841942    -0.05600
C1109       C  0.36583580  0.40162393  0.39432817    -0.32600
C1110       C  0.38481301  0.41753968  0.40359142     0.36500
H1111       H  0.42726725  0.43754269  0.37549614     0.16800
O1112       O  0.39483504  0.40956437  0.35608349    -0.60100
H1113       H  0.34867407  0.39178353  0.39965418     0.16900
O1114       O  0.38090531  0.42084136  0.41892534    -0.60200
H1115       H  0.37898467  0.40702296  0.42462428     0.43900
H1116       H  0.40310748  0.40078214  0.35555871     0.43800
C1117       C  0.40279478  0.36880190  0.62126075    -0.05200
C1118       C  0.41191947  0.39155978  0.62713956    -0.32700
C1119       C  0.42802363  0.41108443  0.61844260     0.36600
C1120       C  0.43498518  0.40812012  0.60339682    -0.05600
C1121       C  0.42527664  0.38536875  0.59730066    -0.32600
C1122       C  0.40939845  0.36581776  0.60611297     0.36500
H1123       H  0.40696212  0.39429287  0.63870116     0.16800
O1124       O  0.43613419  0.43301570  0.62453180    -0.60100
H1125       H  0.43030936  0.38266633  0.58575690     0.16900
O1126       O  0.40031861  0.34392031  0.59972513    -0.60200
H1127       H  0.38556923  0.34048366  0.59456670     0.43900
H1128       H  0.44711113  0.43485125  0.63302330     0.43800
C1129       C  0.48448153  0.00775296  0.99668431    -0.05200
C1130       C  0.49622913  0.01176998  0.01107293    -0.32700
C1131       C  0.51591381  0.00956845  0.01244684     0.36600
C1132       C  0.52442971  0.00341421  0.99925257    -0.05600
C1133       C  0.51286344  0.99969482  0.98482780    -0.32600
C1134       C  0.49325738  0.00201332  0.98343749     0.36500
H1135       H  0.48981140  0.01605415  0.02146295     0.16800
O1136       O  0.52624570  0.01288876  0.02686727    -0.60100
H1137       H  0.51927564  0.99536425  0.97445356     0.16900
O1138       O  0.48313591  0.99902225  0.96897367    -0.60200
H1139       H  0.49034828  0.01498671  0.96450337     0.43900
H1140       H  0.51853889  0.99715332  0.03171762     0.43800
C1141       C  0.70246799  0.06707999  0.04251482    -0.05200
C1142       C  0.70674030  0.08986851  0.04436578    -0.32700
C1143       C  0.72604032  0.10662840  0.05294169     0.36600
C1144       C  0.74107438  0.10052509  0.06018076    -0.05600
C1145       C  0.73656380  0.07762306  0.05862158    -0.32600
C1146       C  0.71753723  0.06098740  0.04976134     0.36500
H1147       H  0.69528193  0.09483913  0.03894572     0.16800
O1148       O  0.72948933  0.12863398  0.05475586    -0.60100
H1149       H  0.74801224  0.07270003  0.06411875     0.16900
O1150       O  0.71364092  0.03875648  0.04848834    -0.60200
H1151       H  0.70288498  0.02990303  0.05724349     0.43900
H1152       H  0.73612891  0.13666400  0.04463873     0.43800
C1153       C  0.15882468  0.80761736  0.32206730    -0.05200
C1154       C  0.17138465  0.81489603  0.33622122    -0.32700
C1155       C  0.19260493  0.83625250  0.33728354     0.36600
C1156       C  0.20170593  0.85080991  0.32401374    -0.05600
C1157       C  0.18926267  0.84340601  0.30982383    -0.32600
C1158       C  0.16802185  0.82207271  0.30877665     0.36500
H1159       H  0.16447666  0.80426959  0.34666696     0.16800
O1160       O  0.20353549  0.84327646  0.35156536    -0.60100
H1161       H  0.19611521  0.85408584  0.29939536     0.16900
O1162       O  0.15695838  0.81506557  0.29453629    -0.60200
H1163       H  0.15006857  0.82494819  0.29275411     0.43900
H1164       H  0.21077274  0.83369024  0.35328647     0.43800
C1165       C  0.04445389  0.63695496  0.37556893    -0.05200
C1166       C  0.02755192  0.62870624  0.38749799    -0.32700
C1167       C  0.02411941  0.61034207  0.39730932     0.36600
C1168       C  0.03716071  0.59938984  0.39488252    -0.05600
C1169       C  0.05416598  0.60782920  0.38298159    -0.32600
C1170       C  0.05807155  0.62661092  0.37351760     0.36500
H1171       H  0.01697240  0.63653954  0.38921885     0.16800
O1172       O  0.00704948  0.60238557  0.40859188    -0.60100
H1173       H  0.06448504  0.59978996  0.38093886     0.16900
O1174       O  0.07424115  0.63376523  0.36165778    -0.60200
H1175       H  0.08961720  0.64358608  0.36683015     0.43900
H1176       H  0.01395333  0.61385325  0.41731044     0.43800
C1177       C  0.93484257  0.69710057  0.26782277    -0.05200
C1178       C  0.93106845  0.68917361  0.28339592    -0.32700
C1179       C  0.94947390  0.69163419  0.29271840     0.36600
C1180       C  0.97240520  0.70260035  0.28662869    -0.05600
C1181       C  0.97621951  0.71073624  0.27106940    -0.32600
C1182       C  0.95768419  0.70787329  0.26165302     0.36500
H1183       H  0.91369036  0.68095736  0.28842352     0.16800
O1184       O  0.94499145  0.68439633  0.30803498    -0.60100
H1185       H  0.99364161  0.71926474  0.26610179     0.16900
O1186       O  0.96234942  0.71683782  0.24674349    -0.60200
H1187       H  0.96441260  0.70557070  0.24037549     0.43900
H1188       H  0.93665994  0.66705098  0.30757334     0.43800
C1189       C  0.67875641  0.81715660  0.33713801    -0.05200
C1190       C  0.69745735  0.83691514  0.32993712    -0.32700
C1191       C  0.69815074  0.85825096  0.32922323     0.36600
C1192       C  0.67996107  0.86034879  0.33589233    -0.05600
C1193       C  0.66147963  0.84075165  0.34336346    -0.32600
C1194       C  0.66075583  0.81938628  0.34405686     0.36500
H1195       H  0.71184155  0.83599787  0.32486919     0.16800
O1196       O  0.71723543  0.87716441  0.32256790    -0.60100
H1197       H  0.64713490  0.84174271  0.34843709     0.16900
O1198       O  0.64172385  0.80058184  0.35082790    -0.60200
H1199       H  0.64410980  0.80330716  0.36233345     0.43900
H1200       H  0.71552134  0.87409046  0.31107848     0.43800
C1201       C  0.77630654  0.70590141  0.26724732    -0.05200
C1202       C  0.76884414  0.69316255  0.28128672    -0.32700
C1203       C  0.75241895  0.69409254  0.29099363     0.36600
C1204       C  0.74326075  0.70825385  0.28686451    -0.05600
C1205       C  0.75074043  0.72102446  0.27278871    -0.32600
C1206       C  0.76693523  0.71976319  0.26294371     0.36500
H1207       H  0.77582174  0.68238750  0.28483480     0.16800
O1208       O  0.74656728  0.68215844  0.30492785    -0.60100
H1209       H  0.74399343  0.73203547  0.26934682     0.16900
O1210       O  0.77444288  0.73316665  0.24962909    -0.60200
H1211       H  0.76171657  0.72467904  0.24187205     0.43900
H1212       H  0.73616717  0.66544314  0.30205205     0.43800
C1213       C  0.57332287  0.59772719  0.39671095    -0.05200
C1214       C  0.57758212  0.59394473  0.38115746    -0.32700
C1215       C  0.59396686  0.61241861  0.37184628     0.36600
C1216       C  0.60623846  0.63536241  0.37793685    -0.05600
C1217       C  0.60187767  0.63923117  0.39345129    -0.32600
C1218       C  0.58580106  0.62062916  0.40288615     0.36500
H1219       H  0.56822475  0.57651977  0.37613715     0.16800
O1220       O  0.59684687  0.60800403  0.35653405    -0.60100
H1221       H  0.61108045  0.65674248  0.39834815     0.16900
O1222       O  0.58158744  0.62525556  0.41782348    -0.60200
H1223       H  0.59518227  0.62775588  0.42410772     0.43900
H1224       H  0.60589858  0.60001337  0.35701547     0.43800
C1225       C  0.74686005  0.65238387  0.06183810    -0.05200
C1226       C  0.72450979  0.64095789  0.06869245    -0.32700
C1227       C  0.70479743  0.63658948  0.06001402     0.36600
C1228       C  0.70735836  0.64423014  0.04433726    -0.05600
C1229       C  0.72980966  0.65631690  0.03770286    -0.32600
C1230       C  0.74938296  0.66021208  0.04621898     0.36500
H1231       H  0.72220038  0.63489730  0.08070564     0.16800
O1232       O  0.68329154  0.62563874  0.06713959    -0.60100
H1233       H  0.73224203  0.66243514  0.02570089     0.16900
O1234       O  0.77103530  0.67252917  0.03934325    -0.60200
H1235       H  0.77138531  0.66175750  0.03144132     0.43900
H1236       H  0.67847938  0.60889069  0.06770562     0.43800
C1237       C  0.01343772  0.52946033  0.00597304    -0.05200
C1238       C  0.02094978  0.52363151  0.99221538    -0.32700
C1239       C  0.02182286  0.50319490  0.99125032     0.36600
C1240       C  0.01543914  0.48815870  0.00428331    -0.05600
C1241       C  0.00806795  0.49403472  0.01810827    -0.32600
C1242       C  0.00711253  0.51449729  0.01904582     0.36500
H1243       H  0.02556752  0.53461096  0.98191627     0.16800
O1244       O  0.02815366  0.49777382  0.97728084    -0.60100
H1245       H  0.00318017  0.48281357  0.02830367     0.16900
O1246       O  0.00024165  0.51975418  0.03285738    -0.60200
H1247       H  0.01493906  0.53019493  0.03860470     0.43900
H1248       H  0.01329146  0.48799719  0.97152120     0.43800
C1249       C  0.07316096  0.70002275  0.95340017    -0.05200
C1250       C  0.06477775  0.71153434  0.94418145    -0.32700
C1251       C  0.07987849  0.73013912  0.93443026     0.36600
C1252       C  0.10386726  0.73787841  0.93413970    -0.05600
C1253       C  0.11223114  0.72631040  0.94329604    -0.32600
C1254       C  0.09709670  0.70743716  0.95279041     0.36500
H1255       H  0.04643781  0.70609263  0.94452943     0.16800
O1256       O  0.07127003  0.74150638  0.92598034    -0.60100
H1257       H  0.13065313  0.73204201  0.94317544     0.16900
O1258       O  0.10607977  0.69692602  0.96179335    -0.60200
H1259       H  0.11025496  0.70546892  0.97193286     0.43900
H1260       H  0.06364902  0.73144842  0.91668020     0.43800
C1261       C  0.93688831  0.63621188  0.04356264    -0.05200
C1262       C  0.92768137  0.64912224  0.03713171    -0.32700
C1263       C  0.91256196  0.65357101  0.04576802     0.36600
C1264       C  0.90627921  0.64510063  0.06122677    -0.05600
C1265       C  0.91582697  0.63258785  0.06780890    -0.32600
C1266       C  0.93080970  0.62790635  0.05907614     0.36500
H1267       H  0.93199459  0.65565863  0.02523843     0.16800
O1268       O  0.90430719  0.66650827  0.03897992    -0.60100
H1269       H  0.91134705  0.62601332  0.07968797     0.16900
O1270       O  0.94008548  0.61600503  0.06604670    -0.60200
H1271       H  0.92717393  0.59940562  0.06628222     0.43900
H1272       H  0.91568140  0.68295180  0.04193362     0.43800
C1273       C  0.62773382  0.93022744  0.95167853    -0.05200
C1274       C  0.64867406  0.93831806  0.94332507    -0.32700
C1275       C  0.65184699  0.92323785  0.93351870     0.36600
C1276       C  0.63418147  0.89944752  0.93234111    -0.05600
C1277       C  0.61332081  0.89138116  0.94078136    -0.32600
C1278       C  0.60987219  0.90660509  0.95018424     0.36500
H1279       H  0.66264526  0.95642045  0.94439971     0.16800
O1280       O  0.67277962  0.93161803  0.92589130    -0.60100
H1281       H  0.59954477  0.87315666  0.94005982     0.16900
O1282       O  0.58952725  0.89788526  0.95859612    -0.60200
H1283       H  0.57769185  0.89644318  0.95094849     0.43900
H1284       H  0.67208451  0.94044793  0.91678085     0.43800
C1285       C  0.63845210  0.73957262  0.93299557    -0.05200
C1286       C  0.65760110  0.73634194  0.93387793    -0.32700
C1287       C  0.65658884  0.71847942  0.94312813     0.36600
C1288       C  0.63592381  0.70301602  0.95131875    -0.05600
C1289       C  0.61663473  0.70597410  0.95016809    -0.32600
C1290       C  0.61787980  0.72424165  0.94131158     0.36500
H1291       H  0.67355978  0.74792202  0.92755231     0.16800
O1292       O  0.67550853  0.71563680  0.94350408    -0.60100
H1293       H  0.60057961  0.69428095  0.95636059     0.16900
O1294       O  0.59851395  0.72628507  0.94028557    -0.60200
H1295       H  0.59771436  0.73309872  0.95045587     0.43900
H1296       H  0.68699324  0.72821206  0.95052038     0.43800
C1297       C  0.82419498  0.14400639  0.65424896    -0.05200
C1298       C  0.82348346  0.16447125  0.65196720    -0.32700
C1299       C  0.84396872  0.18662743  0.65248243     0.36600
C1300       C  0.86577429  0.18863787  0.65522865    -0.05600
C1301       C  0.86642666  0.16810848  0.65736084    -0.32600
C1302       C  0.84596748  0.14601837  0.65695596     0.36500
H1303       H  0.80689824  0.16336690  0.65012770     0.16800
O1304       O  0.84224366  0.20615557  0.65112193    -0.60100
H1305       H  0.88294204  0.16906905  0.65917716     0.16900
O1306       O  0.84762842  0.12646657  0.65848446    -0.60200
H1307       H  0.85102783  0.12588009  0.66973660     0.43900
H1308       H  0.83926255  0.20710720  0.63984217     0.43800
C1309       C  0.71634425  0.97188833  0.70812784    -0.05200
C1310       C  0.69702236  0.95994397  0.71819375    -0.32700
C1311       C  0.69516866  0.94257341  0.72839342     0.36600
C1312       C  0.71244925  0.93645906  0.72827327    -0.05600
C1313       C  0.73166611  0.94832268  0.71817291    -0.32600
C1314       C  0.73380133  0.96597753  0.70826117     0.36500
H1315       H  0.68338477  0.96416526  0.71820765     0.16800
O1316       O  0.67579536  0.93079764  0.73777360    -0.60100
H1317       H  0.74510659  0.94382379  0.71792294     0.16900
O1318       O  0.75272095  0.97682689  0.69840990    -0.60200
H1319       H  0.74761351  0.96760772  0.68854327     0.43900
H1320       H  0.67886732  0.94122830  0.74691538     0.43800
C1321       C  0.60222929  0.02707716  0.59933629    -0.05200
C1322       C  0.62426104  0.03655917  0.59217808    -0.32700
C1323       C  0.64350155  0.03893586  0.60047085     0.36600
C1324       C  0.64091293  0.03145050  0.61619389    -0.05600
C1325       C  0.61873194  0.02127806  0.62319360    -0.32600
C1326       C  0.59956843  0.01922184  0.61498600     0.36500
H1327       H  0.62677091  0.04256127  0.58014721     0.16800
O1328       O  0.66450643  0.04768080  0.59286727    -0.60100
H1329       H  0.61624838  0.01522961  0.63521486     0.16900
O1330       O  0.57812486  0.00860284  0.62218892    -0.60200
H1331       H  0.57912744  0.02007807  0.63005231     0.43900
H1332       H  0.67073285  0.06469509  0.59176082     0.43800
C1333       C  0.85877710  0.66513977  0.66622075    -0.05200
C1334       C  0.85029287  0.66803262  0.68061640    -0.32700
C1335       C  0.82918880  0.66771579  0.68145571     0.36600
C1336       C  0.81624029  0.66483020  0.66768341    -0.05600
C1337       C  0.82475201  0.66188552  0.65329928    -0.32600
C1338       C  0.84580757  0.66213692  0.65247694     0.36500
H1339       H  0.85986337  0.67016671  0.69134937     0.16800
O1340       O  0.82129181  0.66983759  0.69586586    -0.60100
H1341       H  0.81536426  0.65993139  0.64251646     0.16900
O1342       O  0.85381082  0.66011100  0.63807969    -0.60200
H1343       H  0.86416372  0.67641078  0.63441016     0.43900
H1344       H  0.81060672  0.65356854  0.69944831     0.43800
C1345       C  0.71257678  0.73815168  0.71271180    -0.05200
C1346       C  0.72143680  0.74277861  0.72808145    -0.32700
C1347       C  0.72061075  0.75972431  0.73738490     0.36600
C1348       C  0.71133999  0.77280885  0.73121325    -0.05600
C1349       C  0.70273649  0.76835212  0.71578581    -0.32600
C1350       C  0.70306427  0.75107262  0.70661584     0.36500
H1351       H  0.72893210  0.73312628  0.73295552     0.16800
O1352       O  0.73004979  0.76420833  0.75216708    -0.60100
H1353       H  0.69559222  0.77824837  0.71078479     0.16900
O1354       O  0.69526438  0.74792272  0.69141793    -0.60200
H1355       H  0.67795943  0.73935891  0.69217957     0.43900
H1356       H  0.71828410  0.75121106  0.75875746     0.43800
C1357       C  0.64086062  0.60624166  0.61893437    -0.05200
C1358       C  0.61822949  0.59740680  0.62491784    -0.32700
C1359       C  0.59850425  0.58162458  0.61629278     0.36600
C1360       C  0.60103403  0.57438860  0.60125833    -0.05600
C1361       C  0.62360593  0.58372415  0.59497874    -0.32600
C1362       C  0.64344074  0.59947417  0.60370180     0.36500
H1363       H  0.61566267  0.60238185  0.63651336     0.16800
O1364       O  0.57675056  0.57412516  0.62243189    -0.60100
H1365       H  0.62591378  0.57846735  0.58339773     0.16900
O1366       O  0.66515224  0.60820201  0.59715484    -0.60200
H1367       H  0.66892633  0.62323900  0.59227089     0.43900
H1368       H  0.57477070  0.56332009  0.63106698     0.43800
C1369       C  0.48694423  0.48048629  0.99628015    -0.05200
C1370       C  0.50791039  0.48139725  0.99993088    -0.32700
C1371       C  0.52918607  0.50278238  0.00044273     0.36600
C1372       C  0.52978828  0.52384267  0.99738849    -0.05600
C1373       C  0.50880784  0.52294708  0.99389649    -0.32600
C1374       C  0.48752856  0.50161185  0.99350601     0.36500
H1375       H  0.50794179  0.46541947  0.00205739     0.16800
O1376       O  0.54931643  0.50276334  0.00352849    -0.60100
H1377       H  0.50879938  0.53893648  0.99175752     0.16900
O1378       O  0.46739103  0.50176753  0.99075953    -0.60200
H1379       H  0.46121392  0.50203452  0.00131085     0.43900
H1380       H  0.55536195  0.50169468  0.99310882     0.43800
C1381       C  0.30669618  0.36916296  0.95247361    -0.05200
C1382       C  0.28428120  0.35938939  0.95903030    -0.32700
C1383       C  0.26577613  0.35787473  0.95031564     0.36600
C1384       C  0.26942473  0.36575935  0.93465610    -0.05600
C1385       C  0.29158041  0.37457083  0.92789157    -0.32600
C1386       C  0.31014427  0.37639123  0.93667409     0.36500
H1387       H  0.28119582  0.35342637  0.97108588     0.16800
O1388       O  0.24400793  0.34788080  0.95702029    -0.60100
H1389       H  0.29466490  0.38053427  0.91583572     0.16900
O1390       O  0.33154171  0.38511079  0.92964392    -0.60200
H1391       H  0.33137931  0.37125282  0.92521035     0.43900
H1392       H  0.24496374  0.35966143  0.96459432     0.43800
C1393       C  0.37700684  0.30224377  0.04222209    -0.05200
C1394       C  0.35576398  0.28834344  0.05020066    -0.32700
C1395       C  0.35269060  0.27039104  0.06030280     0.36600
C1396       C  0.37081867  0.26571942  0.06228948    -0.05600
C1397       C  0.39185199  0.27927156  0.05409665    -0.32600
C1398       C  0.39516501  0.29756713  0.04430269     0.36500
H1399       H  0.34152099  0.29150385  0.04870869     0.16800
O1400       O  0.33147800  0.25669359  0.06749126    -0.60100
H1401       H  0.40588329  0.27573315  0.05534671     0.16900
O1402       O  0.41576169  0.30990091  0.03616536    -0.60200
H1403       H  0.42752650  0.32026830  0.04404089     0.43900
H1404       H  0.33153996  0.26597646  0.07660056     0.43800
loop_ 
_geom_bond_atom_site_label_1 
_geom_bond_atom_site_label_2 
_geom_bond_distance 
_geom_bond_site_symmetry_2 
_ccdc_geom_bond_type 
N1            N2   1.323       .  A
N1            C5   1.346       .  A
N1           Cu9   2.082       .  S
N2            C3   1.345       .  A
N2           Cu8   2.076       .  S
C3            C4   1.384       .  A
C3            H6   1.082       .  S
C4            C5   1.385       .  A
C4         C1381   1.481       .  S
C5            H7   1.082       .  S
Cu8          N11   2.076       .  S
Cu9          N19   2.082   1_556  S
Cu10         N12   2.072   1_554  S
Cu10         N18   2.072       .  S
N11          N12   1.321       .  A
N11          C15   1.345       .  A
N12          C13   1.345   1_556  A
C13          C14   1.385   1_554  A
C13          H16   1.082       .  S
C14          C15   1.388       .  A
C14        C1369   1.485       .  S
C15          H17   1.081       .  S
N18          N19   1.321       .  A
N18          C22   1.344       .  A
N19          C20   1.347       .  A
C20          C21   1.388       .  A
C20          H23   1.082       .  S
C21          C22   1.386       .  A
C21        C1393   1.486       .  S
C22          H24   1.081       .  S
N25          N26   1.321       .  A
N25          C29   1.346       .  A
N25         Cu33   2.075       .  S
N26          C27   1.344       .  A
N26         Cu32   2.072       .  S
C27          C28   1.386       .  A
C27          H30   1.081       .  S
C28          C29   1.386       .  A
C28        C1345   1.483       .  S
C29          H31   1.082       .  S
Cu32         N35   2.071       .  S
Cu33         N43   2.075       .  S
Cu34         N36   2.079       .  S
Cu34         N42   2.079       .  S
N35          N36   1.321       .  A
N35          C39   1.342       .  A
N36          C37   1.348       .  A
C37          C38   1.389       .  A
C37          H40   1.081       .  S
C38          C39   1.386       .  A
C38        C1357   1.486       .  S
C39          H41   1.082       .  S
N42          N43   1.322       .  A
N42          C46   1.344       .  A
N43          C44   1.345       .  A
C44          C45   1.387       .  A
C44          H47   1.081       .  S
C45          C46   1.387       .  A
C45        C1336   1.486       .  S
C46          H48   1.082       .  S
N49          N50   1.322       .  A
N49          C53   1.349   1_545  A
N49         Cu57   2.089       .  S
N50          C51   1.343       .  A
N50         Cu56   2.070       .  S
C51          C52   1.383   1_545  A
C51          H54   1.082       .  S
C52          C53   1.388       .  A
C52        C1309   1.483       .  S
C53          H55   1.082       .  S
Cu56         N59   2.070       .  S
Cu57         N67   2.089       .  S
Cu58         N60   2.079       .  S
Cu58         N66   2.080       .  S
N59          N60   1.321       .  A
N59          C63   1.344       .  A
N60          C61   1.347       .  A
C61          C62   1.388       .  A
C61          H64   1.082       .  S
C62          C63   1.386       .  A
C62        C1297   1.485       .  S
C63          H65   1.081       .  S
N66          N67   1.323       .  A
N66          C70   1.345       .  A
N67          C68   1.347       .  A
C68          C69   1.388       .  A
C68          H71   1.082       .  S
C69          C70   1.386       .  A
C69        C1324   1.487       .  S
C70          H72   1.081       .  S
N73          N74   1.322       .  A
N73          C77   1.343       .  A
N73         Cu81   2.068       .  S
N74          C75   1.348       .  A
N74         Cu80   2.083       .  S
C75          C76   1.387       .  A
C75          H78   1.082       .  S
C76          C77   1.382       .  A
C76        C1312   1.479       .  S
C77          H79   1.082       .  S
Cu80         N83   2.084       .  S
Cu81         N91   2.067       .  S
Cu82         N84   2.083       .  S
Cu82         N90   2.082       .  S
N83          N84   1.324       .  A
N83          C87   1.347       .  A
N84          C85   1.346       .  A
C85          C86   1.383       .  A
C85          H88   1.082       .  S
C86          C87   1.385       .  A
C86         C110   1.475       .  S
C87          H89   1.082       .  S
N90          N91   1.321       .  A
N90          C94   1.348       .  A
N91          C92   1.343       .  A
C92          C93   1.384       .  A
C92          H95   1.082       .  S
C93          C94   1.388       .  A
C93        C1348   1.483       .  S
C94          H96   1.081       .  S
N97          N98   1.322       .  A
N97         C101   1.345       .  A
N97        Cu105   2.073       .  S
N98          C99   1.347       .  A
N98        Cu104   2.083       .  S
C99         C100   1.387       .  A
C99         H102   1.082       .  S
C100        C101   1.385       .  A
C100       C1285   1.483       .  S
C101        H103   1.082       .  S
Cu104       N107   2.083       .  S
Cu105       N115   2.073       .  S
Cu106       N108   2.082       .  S
Cu106       N114   2.081       .  S
N107        N108   1.324       .  A
N107        C111   1.346       .  A
N108        C109   1.347       .  A
C109        C110   1.384       .  A
C109        H112   1.082       .  S
C110        C111   1.384       .  A
C111        H113   1.082       .  S
N114        N115   1.322       .  A
N114        C118   1.347       .  A
N115        C116   1.344       .  A
C116        C117   1.384       .  A
C116        H119   1.082       .  S
C117        C118   1.387       .  A
C117       C1276   1.483       .  S
C118        H120   1.081       .  S
N121        N122   1.322       .  A
N121        C125   1.347       .  A
N121       Cu129   2.083       .  S
N122        C123   1.342       .  A
N122       Cu128   2.069   1_654  S
C123        C124   1.385       .  A
C123        H126   1.082       .  S
C124        C125   1.388       .  A
C124       C1261   1.485       .  S
C125        H127   1.081       .  S
Cu128       N131   2.067       .  S
Cu129       N139   2.082   1_655  S
Cu130       N132   2.059       .  S
Cu130       N138   2.060       .  S
N131        N132   1.320       .  A
N131        C135   1.344       .  A
N132        C133   1.343       .  A
C133        C134   1.384       .  A
C133        H136   1.082       .  S
C134        C135   1.385       .  A
C134       C1249   1.476       .  S
C135        H137   1.082       .  S
N138        N139   1.321   1_556  A
N138        C142   1.340       .  A
N139        C140   1.347   1_455  A
C140        C141   1.389   1_655  A
C140        H143   1.081       .  S
C141        C142   1.383   1_554  A
C141       C1237   1.483       .  S
C142        H144   1.082       .  S
N145        N146   1.322       .  A
N145        C149   1.343       .  A
N145       Cu153   2.075   1_554  S
N146        C147   1.347       .  A
N146       Cu152   2.080       .  S
C147        C148   1.387       .  A
C147        H150   1.081       .  S
C148        C149   1.385       .  A
C148       C1228   1.483       .  S
C149        H151   1.082       .  S
Cu152       N155   2.079       .  S
Cu153       N163   2.075       .  S
Cu154       N156   2.077       .  S
Cu154       N162   2.077       .  S
N155        N156   1.322   1_554  A
N155        C159   1.346       .  A
N156        C157   1.345       .  A
C157        C158   1.385       .  A
C157        H160   1.082       .  S
C158        C159   1.387   1_556  A
C158       C1372   1.483       .  S
C159        H161   1.082       .  S
N162        N163   1.321       .  A
N162        C166   1.345       .  A
N163        C164   1.346       .  A
C164        C165   1.386       .  A
C164        H167   1.082       .  S
C165        C166   1.386       .  A
C165       C1288   1.483       .  S
C166        H168   1.082       .  S
N169        N170   1.321       .  A
N169        C173   1.346       .  A
N169       Cu177   2.078       .  S
N170        C171   1.344       .  A
N170       Cu176   2.072       .  S
C171        C172   1.388       .  A
C171        H174   1.081       .  S
C172        C173   1.388       .  A
C172       C1204   1.487       .  S
C173        H175   1.082       .  S
Cu176       N179   2.072       .  S
Cu177       N187   2.078       .  S
Cu178       N180   2.076       .  S
Cu178       N186   2.077       .  S
N179        N180   1.322       .  A
N179        C183   1.344       .  A
N180        C181   1.346       .  A
C181        C182   1.386       .  A
C181        H184   1.082       .  S
C182        C183   1.385       .  A
C182       C1216   1.482       .  S
C183        H185   1.081       .  S
N186        N187   1.321       .  A
N186        C190   1.345       .  A
N187        C188   1.344       .  A
C188        C189   1.389       .  A
C188        H191   1.081       .  S
C189        C190   1.390       .  A
C189       C1189   1.492       .  S
C190        H192   1.080       .  S
N193        N194   1.320       .  A
N193        C197   1.344       .  A
N193       Cu201   2.069       .  S
N194        C195   1.348       .  A
N194       Cu200   2.082       .  S
C195        C196   1.390       .  A
C195        H198   1.081       .  S
C196        C197   1.385       .  A
C196       C1177   1.486       .  S
C197        H199   1.082       .  S
Cu200       N203   2.083       .  S
Cu201       N211   2.069       .  S
Cu202       N204   2.081       .  S
Cu202       N210   2.080       .  S
N203        N204   1.325       .  A
N203        C207   1.346       .  A
N204        C205   1.346       .  A
C205        C206   1.383       .  A
C205        H208   1.082       .  S
C206        C207   1.383       .  A
C206        C230   1.473       .  S
C207        H209   1.082       .  S
N210        N211   1.322       .  A
N210        C214   1.349       .  A
N211        C212   1.341       .  A
C212        C213   1.383       .  A
C212        H215   1.082       .  S
C213        C214   1.389       .  A
C213       C1201   1.482       .  S
C214        H216   1.082       .  S
N217        N218   1.321       .  A
N217        C221   1.342       .  A
N217       Cu225   2.066       .  S
N218        C219   1.348       .  A
N218       Cu224   2.078       .  S
C219        C220   1.388       .  A
C219        H222   1.082       .  S
C220        C221   1.384       .  A
C220       C1225   1.483       .  S
C221        H223   1.081       .  S
Cu224       N227   2.079       .  S
Cu225       N235   2.066       .  S
Cu226       N228   2.084       .  S
Cu226       N234   2.082       .  S
N227        N228   1.324       .  A
N227        C231   1.345       .  A
N228        C229   1.346       .  A
C229        C230   1.384       .  A
C229        H232   1.082       .  S
C230        C231   1.383       .  A
C231        H233   1.082       .  S
N234        N235   1.321       .  A
N234        C238   1.348       .  A
N235        C236   1.343       .  A
C236        C237   1.385       .  A
C236        H239   1.081       .  S
C237        C238   1.389       .  A
C237       C1264   1.484       .  S
C238        H240   1.082       .  S
N241        N242   1.322       .  A
N241        C245   1.347       .  A
N241       Cu249   2.083       .  S
N242        C243   1.344       .  A
N242       Cu248   2.066       .  S
C243        C244   1.382       .  A
C243        H246   1.082       .  S
C244        C245   1.386       .  A
C244       C1165   1.478       .  S
C245        H247   1.082       .  S
Cu248       N251   2.066       .  S
Cu249       N259   2.083       .  S
Cu250       N252   2.083       .  S
Cu250       N258   2.084       .  S
N251        N252   1.321       .  A
N251        C255   1.343       .  A
N252        C253   1.346       .  A
C253        C254   1.388       .  A
C253        H256   1.081       .  S
C254        C255   1.384       .  A
C254       C1153   1.483       .  S
C255        H257   1.082       .  S
N258        N259   1.323       .  A
N258        C262   1.347       .  A
N259        C260   1.345   1_455  A
C260        C261   1.388       .  A
C260        H263   1.081       .  S
C261        C262   1.388   1_655  A
C261       C1180   1.490       .  S
C262        H264   1.082       .  S
N265        N266   1.322       .  A
N265        C269   1.346       .  A
N265       Cu273   2.084       .  S
N266        C267   1.345       .  A
N266       Cu272   2.070       .  S
C267        C268   1.383       .  A
C267        H270   1.082       .  S
C268        C269   1.387       .  A
C268       C1273   1.481       .  S
C269        H271   1.082       .  S
Cu272       N275   2.070   1_566  S
Cu273       N283   2.084       .  S
Cu274       N276   2.072       .  S
Cu274       N282   2.073       .  S
N275        N276   1.322       .  A
N275        C279   1.345       .  A
N276        C277   1.344       .  A
C277        C278   1.384       .  A
C277        H280   1.082       .  S
C278        C279   1.384       .  A
C278       C1141   1.477       .  S
C279        H281   1.082       .  S
N282        N283   1.321   1_544  A
N282        C286   1.346       .  A
N283        C284   1.346       .  A
C284        C285   1.388   1_566  A
C284        H287   1.082       .  S
C285        C286   1.387       .  A
C285       C1132   1.487   1_554  S
C286        H288   1.081       .  S
N289        N290   1.321       .  A
N289        C293   1.343       .  A
N289       Cu297   2.070       .  S
N290        C291   1.347       .  A
N290       Cu296   2.081       .  S
C291        C292   1.388       .  A
C291        H294   1.082       .  S
C292        C293   1.385       .  A
C292       C1120   1.484       .  S
C293        H295   1.081       .  S
Cu296       N299   2.082       .  S
Cu297       N307   2.070       .  S
Cu298       N300   2.073       .  S
Cu298       N306   2.073       .  S
N299        N300   1.324       .  A
N299        C303   1.346       .  A
N300        C301   1.344       .  A
C301        C302   1.381       .  A
C301        H304   1.082       .  S
C302        C303   1.384       .  A
C302        C326   1.471       .  S
C303        H305   1.082       .  S
N306        N307   1.321       .  A
N306        C310   1.348       .  A
N307        C308   1.342       .  A
C308        C309   1.385       .  A
C308        H311   1.081       .  S
C309        C310   1.387       .  A
C309       C1360   1.483       .  S
C310        H312   1.082       .  S
N313        N314   1.321       .  A
N313        C317   1.342       .  A
N313       Cu321   2.067       .  S
N314        C315   1.346       .  A
N314       Cu320   2.076       .  S
C315        C316   1.388       .  A
C315        H318   1.081       .  S
C316        C317   1.385       .  A
C316       C1213   1.483       .  S
C317        H319   1.082       .  S
Cu320       N323   2.077       .  S
Cu321       N331   2.067       .  S
Cu322       N324   2.076       .  S
Cu322       N330   2.076       .  S
N323        N324   1.324       .  A
N323        C327   1.345       .  A
N324        C325   1.345       .  A
C325        C326   1.382       .  A
C325        H328   1.082       .  S
C326        C327   1.383       .  A
C327        H329   1.082       .  S
N330        N331   1.320       .  A
N330        C334   1.346       .  A
N331        C332   1.343       .  A
C332        C333   1.385       .  A
C332        H335   1.082       .  S
C333        C334   1.389       .  A
C333       C1105   1.485       .  S
C334        H336   1.081       .  S
N337        N338   1.322   1_455  A
N337        C341   1.347       .  A
N337       Cu345   2.079   1_455  S
N338        C339   1.344   1_655  A
N338       Cu344   2.076       .  S
C339        C340   1.385       .  A
C339        H342   1.081   1_455  S
C340        C341   1.386       .  A
C340       C1093   1.482       .  S
C341        H343   1.082       .  S
Cu344       N347   2.076       .  S
Cu345       N355   2.079       .  S
Cu346       N348   2.075       .  S
Cu346       N354   2.075       .  S
N347        N348   1.320       .  A
N347        C351   1.344       .  A
N348        C349   1.347       .  A
C349        C350   1.389       .  A
C349        H352   1.081       .  S
C350        C351   1.388       .  A
C350       C1300   1.489       .  S
C351        H353   1.082       .  S
N354        N355   1.322       .  A
N354        C358   1.343       .  A
N355        C356   1.346       .  A
C356        C357   1.388       .  A
C356        H359   1.081   1_655  S
C357        C358   1.385       .  A
C357       C1081   1.485       .  S
C358        H360   1.082       .  S
N361        N362   1.322       .  A
N361        C365   1.341       .  A
N361       Cu369   2.063       .  S
N362        C363   1.350       .  A
N362       Cu368   2.090       .  S
C363        C364   1.390       .  A
C363        H366   1.082       .  S
C364        C365   1.381       .  A
C364       C1096   1.482       .  S
C365        H367   1.082       .  S
Cu368       N371   2.091       .  S
Cu369       N379   2.063       .  S
Cu370       N372   2.076       .  S
Cu370       N378   2.074       .  S
N371        N372   1.324       .  A
N371        C375   1.347       .  A
N372        C373   1.345       .  A
C373        C374   1.382       .  A
C373        H376   1.082       .  S
C374        C375   1.385       .  A
C374        C398   1.475       .  S
C375        H377   1.082       .  S
N378        N379   1.320       .  A
N378        C382   1.346       .  A
N379        C380   1.342       .  A
C380        C381   1.385       .  A
C380        H383   1.081       .  S
C381        C382   1.388       .  A
C381       C1069   1.483       .  S
C382        H384   1.082       .  S
N385        N386   1.321       .  A
N385        C389   1.343       .  A
N385       Cu393   2.064       .  S
N386        C387   1.346       .  A
N386       Cu392   2.079       .  S
C387        C388   1.387       .  A
C387        H390   1.082       .  S
C388        C389   1.383       .  A
C388       C1384   1.480       .  S
C389        H391   1.081       .  S
Cu392       N395   2.081       .  S
Cu393       N403   2.063       .  S
Cu394       N396   2.082       .  S
Cu394       N402   2.082       .  S
N395        N396   1.324       .  A
N395        C399   1.346       .  A
N396        C397   1.346       .  A
C397        C398   1.383       .  A
C397        H400   1.082       .  S
C398        C399   1.384       .  A
C399        H401   1.082       .  S
N402        N403   1.322       .  A
N402        C406   1.347       .  A
N403        C404   1.343       .  A
C404        C405   1.382       .  A
C404        H407   1.082       .  S
C405        C406   1.386       .  A
C405       C1057   1.478       .  S
C406        H408   1.082       .  S
N409        N410   1.322       .  A
N409        C413   1.349       .  A
N409       Cu417   2.088       .  S
N410        C411   1.342       .  A
N410       Cu416   2.065       .  S
C411        C412   1.381       .  A
C411        H414   1.082       .  S
C412        C413   1.388       .  A
C412       C1072   1.479       .  S
C413        H415   1.082       .  S
Cu416       N419   2.066       .  S
Cu417       N427   2.089       .  S
Cu418       N420   2.071       .  S
Cu418       N426   2.072       .  S
N419        N420   1.320       .  A
N419        C423   1.343       .  A
N420        C421   1.346       .  A
C421        C422   1.387       .  A
C421        H424   1.082       .  S
C422        C423   1.385       .  A
C422       C1117   1.482       .  S
C423        H425   1.082       .  S
N426        N427   1.323       .  A
N426        C430   1.344       .  A
N427        C428   1.347       .  A
C428        C429   1.389       .  A
C428        H431   1.082       .  S
C429        C430   1.384       .  A
C429       C1045   1.486       .  S
C430        H432   1.081       .  S
N433        N434   1.321       .  A
N433        C437   1.342       .  A
N433       Cu441   2.067       .  S
N434        C435   1.348       .  A
N434       Cu440   2.079       .  S
C435        C436   1.389       .  A
C435        H438   1.081       .  S
C436        C437   1.385       .  A
C436       C1021   1.484       .  S
C437        H439   1.082       .  S
Cu440       N443   2.081       .  S
Cu441       N451   2.067       .  S
Cu442       N444   2.084       .  S
Cu442       N450   2.083       .  S
N443        N444   1.324       .  A
N443        C447   1.345       .  A
N444        C445   1.347       .  A
C445        C446   1.384       .  A
C445        H448   1.082       .  S
C446        C447   1.383       .  A
C446        C470   1.475       .  S
C447        H449   1.082       .  S
N450        N451   1.322       .  A
N450        C454   1.348       .  A
N451        C452   1.343       .  A
C452        C453   1.382       .  A
C452        H455   1.082       .  S
C453        C454   1.387       .  A
C453       C1033   1.479       .  S
C454        H456   1.082       .  S
N457        N458   1.322       .  A
N457        C461   1.344       .  A
N457       Cu465   2.070       .  S
N458        C459   1.348       .  A
N458       Cu464   2.089       .  S
C459        C460   1.388       .  A
C459        H462   1.082       .  S
C460        C461   1.382       .  A
C460       C1396   1.481       .  S
C461        H463   1.082       .  S
Cu464       N467   2.089       .  S
Cu465       N475   2.070       .  S
Cu466       N468   2.077       .  S
Cu466       N474   2.076       .  S
N467        N468   1.324       .  A
N467        C471   1.348       .  A
N468        C469   1.344       .  A
C469        C470   1.382       .  A
C469        H472   1.082       .  S
C470        C471   1.386       .  A
C471        H473   1.082       .  S
N474        N475   1.321       .  A
N474        C478   1.348       .  A
N475        C476   1.342       .  A
C476        C477   1.384       .  A
C476        H479   1.082       .  S
C477        C478   1.388       .  A
C477       C1012   1.483       .  S
C478        H480   1.081       .  S
N481        N482   1.322       .  A
N481        C485   1.346   1_565  A
N481       Cu489   2.088       .  S
N482        C483   1.344       .  A
N482       Cu488   2.063       .  S
C483        C484   1.382   1_565  A
C483        H486   1.082       .  S
C484        C485   1.388       .  A
C484       C1024   1.482       .  S
C485        H487   1.081       .  S
Cu488       N491   2.062       .  S
Cu489       N499   2.087       .  S
Cu490       N492   2.072       .  S
Cu490       N498   2.072       .  S
N491        N492   1.320       .  A
N491        C495   1.343       .  A
N492        C493   1.345       .  A
C493        C494   1.388       .  A
C493        H496   1.081       .  S
C494        C495   1.385       .  A
C494       C1156   1.483       .  S
C495        H497   1.082       .  S
N498        N499   1.323       .  A
N498        C502   1.343       .  A
N499        C500   1.349       .  A
C500        C501   1.387       .  A
C500        H503   1.082   1_565  S
C501        C502   1.383       .  A
C501        C997   1.482       .  S
C502        H504   1.082       .  S
N505        N506   1.321       .  A
N505        C509   1.344       .  A
N505       Cu513   2.074       .  S
N506        C507   1.346       .  A
N506       Cu512   2.073   1_554  S
C507        C508   1.384       .  A
C507        H510   1.082       .  S
C508        C509   1.385       .  A
C508       C1009   1.479       .  S
C509        H511   1.082       .  S
Cu512       N515   2.073   1_545  S
Cu513       N523   2.074       .  S
Cu514       N516   2.081       .  S
Cu514       N522   2.081   1_565  S
N515        N516   1.322       .  A
N515        C519   1.344       .  A
N516        C517   1.346       .  A
C517        C518   1.386       .  A
C517        H520   1.081       .  S
C518        C519   1.384       .  A
C518        C988   1.482       .  S
C519        H521   1.082       .  S
N522        N523   1.322   1_556  A
N522        C526   1.346   1_545  A
N523        C524   1.345       .  A
C524        C525   1.386   1_554  A
C524        H527   1.082       .  S
C525        C526   1.389   1_545  A
C525       C1129   1.488       .  S
C526        H528   1.081       .  S
N529        N530   1.321       .  A
N529        C533   1.345       .  A
N529       Cu537   2.072       .  S
N530        C531   1.345       .  A
N530       Cu536   2.074       .  S
C531        C532   1.385       .  A
C531        H534   1.082       .  S
C532        C533   1.385       .  A
C532       C1036   1.481       .  S
C533        H535   1.081       .  S
Cu536       N539   2.074       .  S
Cu537       N547   2.072       .  S
Cu538       N540   2.079       .  S
Cu538       N546   2.079       .  S
N539        N540   1.322       .  A
N539        C543   1.345       .  A
N540        C541   1.346       .  A
C541        C542   1.386       .  A
C541        H544   1.082       .  S
C542        C543   1.385       .  A
C542       C1108   1.482       .  S
C543        H545   1.081       .  S
N546        N547   1.321       .  A
N546        C550   1.347       .  A
N547        C548   1.343       .  A
C548        C549   1.386       .  A
C548        H551   1.082       .  S
C549        C550   1.389       .  A
C549        C973   1.487       .  S
C550        H552   1.081       .  S
N553        N554   1.321       .  A
N553        C557   1.342       .  A
N553       Cu561   2.062       .  S
N554        C555   1.346       .  A
N554       Cu560   2.074       .  S
C555        C556   1.385       .  A
C555        H558   1.082       .  S
C556        C557   1.381       .  A
C556       C1144   1.474       .  S
C557        H559   1.082       .  S
Cu560       N563   2.075       .  S
Cu561       N571   2.062       .  S
Cu562       N564   2.086       .  S
Cu562       N570   2.085       .  S
N563        N564   1.324       .  A
N563        C567   1.345       .  A
N564        C565   1.347       .  A
C565        C566   1.384       .  A
C565        H568   1.082       .  S
C566        C567   1.382       .  A
C566        C590   1.473       .  S
C567        H569   1.082       .  S
N570        N571   1.322       .  A
N570        C574   1.348       .  A
N571        C572   1.343       .  A
C572        C573   1.382       .  A
C572        H575   1.082       .  S
C573        C574   1.388       .  A
C573        C961   1.480       .  S
C574        H576   1.082       .  S
N577        N578   1.320       .  A
N577        C581   1.339       .  A
N577       Cu585   2.055       .  S
N578        C579   1.349       .  A
N578       Cu584   2.082       .  S
C579        C580   1.389       .  A
C579        H582   1.081       .  S
C580        C581   1.381       .  A
C580        C937   1.480       .  S
C581        H583   1.082       .  S
Cu584       N587   2.084       .  S
Cu585       N595   2.055       .  S
Cu586       N588   2.083       .  S
Cu586       N594   2.081       .  S
N587        N588   1.325       .  A
N587        C591   1.346       .  A
N588        C589   1.345       .  A
C589        C590   1.383       .  A
C589        H592   1.082       .  S
C590        C591   1.383       .  A
C591        H593   1.082       .  S
N594        N595   1.320       .  A
N594        C598   1.348       .  A
N595        C596   1.341       .  A
C596        C597   1.382       .  A
C596        H599   1.082       .  S
C597        C598   1.389       .  A
C597        C952   1.481       .  S
C598        H600   1.081       .  S
N601        N602   1.322       .  A
N601        C605   1.345       .  A
N601       Cu609   2.079       .  S
N602        C603   1.345       .  A
N602       Cu608   2.076       .  S
C603        C604   1.385       .  A
C603        H606   1.082       .  S
C604        C605   1.386       .  A
C604       C1060   1.483       .  S
C605        H607   1.082       .  S
Cu608       N611   2.076   1_456  S
Cu609       N619   2.079       .  S
Cu610       N612   2.070       .  S
Cu610       N618   2.069   1_655  S
N611        N612   1.321       .  A
N611        C615   1.345       .  A
N612        C613   1.345       .  A
C613        C614   1.384       .  A
C613        H616   1.082       .  S
C614        C615   1.385       .  A
C614        C964   1.479       .  S
C615        H617   1.082       .  S
N618        N619   1.322   1_554  A
N618        C622   1.343       .  A
N619        C620   1.345       .  A
C620        C621   1.388   1_556  A
C620        H623   1.081       .  S
C621        C622   1.384       .  A
C621       C1240   1.483       .  S
C622        H624   1.082   1_455  S
N625        N626   1.321       .  A
N625        C629   1.347       .  A
N625       Cu633   2.083       .  S
N626        C627   1.343       .  A
N626       Cu632   2.067       .  S
C627        C628   1.385       .  A
C627        H630   1.081       .  S
C628        C629   1.388       .  A
C628        C928   1.485       .  S
C629        H631   1.082       .  S
Cu632       N635   2.067       .  S
Cu633       N643   2.083       .  S
Cu634       N636   2.078       .  S
Cu634       N642   2.079       .  S
N635        N636   1.321       .  A
N635        C639   1.344   1_565  A
N636        C637   1.345       .  A
C637        C638   1.386   1_565  A
C637        H640   1.082       .  S
C638        C639   1.385       .  A
C638        C949   1.480       .  S
C639        H641   1.081       .  S
N642        N643   1.322       .  A
N642        C646   1.345       .  A
N643        C644   1.346       .  A
C644        C645   1.388       .  A
C644        H647   1.082       .  S
C645        C646   1.389       .  A
C645       C1192   1.490       .  S
C646        H648   1.081       .  S
N649        N650   1.321       .  A
N649        C653   1.344       .  A
N649       Cu657   2.074       .  S
N650        C651   1.347       .  A
N650       Cu656   2.076       .  S
C651        C652   1.388       .  A
C651        H654   1.081       .  S
C652        C653   1.386       .  A
C652       C1000   1.485       .  S
C653        H655   1.082       .  S
Cu656       N659   2.076   1_565  S
Cu657       N667   2.074       .  S
Cu658       N660   2.084   1_565  S
Cu658       N666   2.083       .  S
N659        N660   1.324       .  A
N659        C663   1.345       .  A
N660        C661   1.346       .  A
C661        C662   1.384       .  A
C661        H664   1.082       .  S
C662        C663   1.383       .  A
C662        C686   1.474       .  S
C663        H665   1.082       .  S
N666        N667   1.322       .  A
N666        C670   1.348       .  A
N667        C668   1.344       .  A
C668        C669   1.385       .  A
C668        H671   1.082       .  S
C669        C670   1.389       .  A
C669        C925   1.486       .  S
C670        H672   1.081       .  S
N673        N674   1.320       .  A
N673        C677   1.345       .  A
N673       Cu681   2.072       .  S
N674        C675   1.347       .  A
N674       Cu680   2.080       .  S
C675        C676   1.389       .  A
C675        H678   1.082       .  S
C676        C677   1.388       .  A
C676       C1321   1.489       .  S
C677        H679   1.081       .  S
Cu680       N683   2.080       .  S
Cu681       N691   2.072       .  S
Cu682       N684   2.085       .  S
Cu682       N690   2.085       .  S
N683        N684   1.324       .  A
N683        C687   1.345       .  A
N684        C685   1.347       .  A
C685        C686   1.385       .  A
C685        H688   1.082       .  S
C686        C687   1.382       .  A
C687        H689   1.082       .  S
N690        N691   1.322       .  A
N690        C694   1.349       .  A
N691        C692   1.342       .  A
C692        C693   1.383       .  A
C692        H695   1.082       .  S
C693        C694   1.389       .  A
C693        C913   1.484       .  S
C694        H696   1.082       .  S
N697        N698   1.321       .  A
N697        C701   1.343       .  A
N697       Cu705   2.065       .  S
N698        C699   1.345       .  A
N698       Cu704   2.074       .  S
C699        C700   1.387       .  A
C699        H702   1.081       .  S
C700        C701   1.384       .  A
C700       C1084   1.481       .  S
C701        H703   1.082       .  S
Cu704       N707   2.075       .  S
Cu705       N715   2.066       .  S
Cu706       N708   2.079       .  S
Cu706       N714   2.079       .  S
N707        N708   1.323       .  A
N707        C711   1.345       .  A
N708        C709   1.345       .  A
C709        C710   1.383       .  A
C709        H712   1.082       .  S
C710        C711   1.382       .  A
C710        C734   1.471   1_655  S
C711        H713   1.082       .  S
N714        N715   1.321       .  A
N714        C718   1.347       .  A
N715        C716   1.343       .  A
C716        C717   1.384       .  A
C716        H719   1.081       .  S
C717        C718   1.387       .  A
C717        C904   1.482       .  S
C718        H720   1.082       .  S
N721        N722   1.321       .  A
N721        C725   1.343       .  A
N721       Cu729   2.067       .  S
N722        C723   1.347       .  A
N722       Cu728   2.079       .  S
C723        C724   1.388       .  A
C723        H726   1.081       .  S
C724        C725   1.385       .  A
C724       C1168   1.484       .  S
C725        H727   1.082       .  S
Cu728       N731   2.079       .  S
Cu729       N739   2.067       .  S
Cu730       N732   2.076       .  S
Cu730       N738   2.075       .  S
N731        N732   1.324       .  A
N731        C735   1.346       .  A
N732        C733   1.345       .  A
C733        C734   1.382       .  A
C733        H736   1.082       .  S
C734        C735   1.383       .  A
C735        H737   1.082       .  S
N738        N739   1.321       .  A
N738        C742   1.347       .  A
N739        C740   1.342       .  A
C740        C741   1.384       .  A
C740        H743   1.082       .  S
C741        C742   1.388       .  A
C741        C889   1.482       .  S
C742        H744   1.081       .  S
N745        N746   1.321       .  A
N745        C749   1.347       .  A
N745       Cu753   2.079       .  S
N746        C747   1.344       .  A
N746       Cu752   2.074       .  S
C747        C748   1.387       .  A
C747        H750   1.082   1_655  S
C748        C749   1.388       .  A
C748        C901   1.486       .  S
C749        H751   1.081       .  S
Cu752       N755   2.074       .  S
Cu753       N763   2.079       .  S
Cu754       N756   2.070       .  S
Cu754       N762   2.070       .  S
N755        N756   1.321       .  A
N755        C759   1.344   1_655  A
N756        C757   1.345       .  A
C757        C758   1.387   1_655  A
C757        H760   1.081       .  S
C758        C759   1.387       .  A
C758        C877   1.485       .  S
C759        H761   1.082       .  S
N762        N763   1.322       .  A
N762        C766   1.344       .  A
N763        C764   1.345       .  A
C764        C765   1.387       .  A
C764        H767   1.081       .  S
C765        C766   1.384       .  A
C765       C1333   1.482       .  S
C766        H768   1.082       .  S
N769        N770   1.322       .  A
N769        C773   1.341       .  A
N769       Cu777   2.057       .  S
N770        C771   1.347       .  A
N770       Cu776   2.079       .  S
C771        C772   1.386       .  A
C771        H774   1.082       .  S
C772        C773   1.380       .  A
C772       C1252   1.474       .  S
C773        H775   1.082       .  S
Cu776       N779   2.080       .  S
Cu777       N787   2.057       .  S
Cu778       N780   2.085       .  S
Cu778       N786   2.084       .  S
N779        N780   1.324       .  A
N779        C783   1.347       .  A
N780        C781   1.345       .  A
C781        C782   1.384       .  A
C781        H784   1.082       .  S
C782        C783   1.384       .  A
C782        C806   1.476       .  S
C783        H785   1.082       .  S
N786        N787   1.321       .  A
N786        C790   1.347       .  A
N787        C788   1.343       .  A
C788        C789   1.383       .  A
C788        H791   1.081       .  S
C789        C790   1.388       .  A
C789        C985   1.480       .  S
C790        H792   1.082       .  S
N793        N794   1.320       .  A
N793        C797   1.341       .  A
N793       Cu801   2.062       .  S
N794        C795   1.349       .  A
N794       Cu800   2.082       .  S
C795        C796   1.390       .  A
C795        H798   1.081       .  S
C796        C797   1.384       .  A
C796        C865   1.485       .  S
C797        H799   1.082       .  S
Cu800       N803   2.083       .  S
Cu801       N811   2.062       .  S
Cu802       N804   2.088       .  S
Cu802       N810   2.086       .  S
N803        N804   1.325       .  A
N803        C807   1.345       .  A
N804        C805   1.348       .  A
C805        C806   1.385       .  A
C805        H808   1.082       .  S
C806        C807   1.383       .  A
C807        H809   1.082       .  S
N810        N811   1.321       .  A
N810        C814   1.347       .  A
N811        C812   1.343       .  A
C812        C813   1.384       .  A
C812        H815   1.081       .  S
C813        C814   1.389       .  A
C813        C880   1.483       .  S
C814        H816   1.082       .  S
N817        N818   1.322       .  A
N817        C821   1.347       .  A
N817       Cu825   2.082       .  S
N818        C819   1.344       .  A
N818       Cu824   2.076       .  S
C819        C820   1.387       .  A
C819        H822   1.081       .  S
C820        C821   1.388       .  A
C820        C916   1.487       .  S
C821        H823   1.082       .  S
Cu824       N827   2.075       .  S
Cu825       N835   2.082       .  S
Cu826       N828   2.075       .  S
Cu826       N834   2.075       .  S
N827        N828   1.321       .  A
N827        C831   1.344   1_545  A
N828        C829   1.346       .  A
C829        C830   1.387   1_545  A
C829        H832   1.082       .  S
C830        C831   1.387       .  A
C830        C868   1.486       .  S
C831        H833   1.081       .  S
N834        N835   1.322       .  A
N834        C838   1.344       .  A
N835        C836   1.346       .  A
C836        C837   1.388       .  A
C836        H839   1.082       .  S
C837        C838   1.386       .  A
C837       C1048   1.486       .  S
C838        H840   1.081       .  S
N841        N842   1.322       .  A
N841        C845   1.346       .  A
N841       Cu849   2.078       .  S
N842        C843   1.344       .  A
N842       Cu848   2.078       .  S
C843        C844   1.386       .  A
C843        H846   1.081       .  S
C844        C845   1.386       .  A
C844        C892   1.484       .  S
C845        H847   1.082       .  S
Cu848       N851   2.077       .  S
Cu849       N859   2.077       .  S
Cu850       N852   2.067       .  S
Cu850       N858   2.068       .  S
N851        N852   1.322       .  A
N851        C855   1.347   1_455  A
N852        C853   1.343       .  A
C853        C854   1.382   1_455  A
C853        H856   1.082       .  S
C854        C855   1.384       .  A
C854        C940   1.475       .  S
C855        H857   1.082       .  S
N858        N859   1.321       .  A
N858        C862   1.344       .  A
N859        C860   1.346       .  A
C860        C861   1.387       .  A
C860        H863   1.082       .  S
C861        C862   1.386       .  A
C861        C976   1.483       .  S
C862        H864   1.081       .  S
C865        C866   1.404       .  A
C865        C870   1.410       .  A
C866        C867   1.398       .  A
C866        H871   1.083       .  S
C867        C868   1.410       .  A
C867        O872   1.371       .  S
C868        C869   1.407       .  A
C869        C870   1.405       .  A
C869        H873   1.083       .  S
C870        O874   1.371       .  S
O872        H876   0.993       .  S
O874        H875   0.992       .  S
C877        C878   1.405       .  A
C877        C882   1.411       .  A
C878        C879   1.400       .  A
C878        H883   1.083       .  S
C879        C880   1.410       .  A
C879        O884   1.372       .  S
C880        C881   1.404       .  A
C881        C882   1.403       .  A
C881        H885   1.083       .  S
C882        O886   1.371       .  S
O884        H888   0.992       .  S
O886        H887   0.993       .  S
C889        C890   1.404       .  A
C889        C894   1.410       .  A
C890        C891   1.398       .  A
C890        H895   1.083       .  S
C891        C892   1.410       .  A
C891        O896   1.371       .  S
C892        C893   1.405       .  A
C893        C894   1.403       .  A
C893        H897   1.083       .  S
C894        O898   1.371       .  S
O896        H900   0.992       .  S
O898        H899   0.992       .  S
C901        C902   1.405       .  A
C901        C906   1.411       .  A
C902        C903   1.400       .  A
C902        H907   1.083       .  S
C903        C904   1.409       .  A
C903        O908   1.372   1_655  S
C904        C905   1.404       .  A
C905        C906   1.402       .  A
C905        H909   1.083       .  S
C906        O910   1.371       .  S
O908        H912   0.992   1_455  S
O910        H911   0.992       .  S
C913        C914   1.404       .  A
C913        C918   1.409       .  A
C914        C915   1.399       .  A
C914        H919   1.083       .  S
C915        C916   1.411       .  A
C915        O920   1.371       .  S
C916        C917   1.407       .  A
C917        C918   1.405       .  A
C917        H921   1.083       .  S
C918        O922   1.371       .  S
O920        H924   0.991       .  S
O922        H923   0.992       .  S
C925        C926   1.404       .  A
C925        C930   1.410       .  A
C926        C927   1.399       .  A
C926        H931   1.083       .  S
C927        C928   1.411       .  A
C927        O932   1.371       .  S
C928        C929   1.405       .  A
C929        C930   1.404       .  A
C929        H933   1.083       .  S
C930        O934   1.371       .  S
O932        H936   0.992       .  S
O934        H935   0.992       .  S
C937        C938   1.405       .  A
C937        C942   1.409       .  A
C938        C939   1.397       .  A
C938        H943   1.083       .  S
C939        C940   1.406       .  A
C939        O944   1.372       .  S
C940        C941   1.404       .  A
C941        C942   1.404       .  A
C941        H945   1.084       .  S
C942        O946   1.371       .  S
O944        H948   0.991       .  S
O946        H947   0.992       .  S
C949        C950   1.404       .  A
C949        C954   1.409       .  A
C950        C951   1.402       .  A
C950        H955   1.083       .  S
C951        C952   1.408       .  A
C951        O956   1.371       .  S
C952        C953   1.404       .  A
C953        C954   1.399       .  A
C953        H957   1.083       .  S
C954        O958   1.372       .  S
O956        H960   0.991       .  S
O958        H959   0.993       .  S
C961        C962   1.403       .  A
C961        C966   1.410       .  A
C962        C963   1.402       .  A
C962        H967   1.083       .  S
C963        C964   1.409       .  A
C963        O968   1.372       .  S
C964        C965   1.403       .  A
C965        C966   1.401       .  A
C965        H969   1.084       .  S
C966        O970   1.372       .  S
O968        H972   0.992       .  S
O970        H971   0.992       .  S
C973        C974   1.406       .  A
C973        C978   1.412       .  A
C974        C975   1.399       .  A
C974        H979   1.083       .  S
C975        C976   1.410       .  A
C975        O980   1.371       .  S
C976        C977   1.404       .  A
C977        C978   1.402       .  A
C977        H981   1.083       .  S
C978        O982   1.371       .  S
O980        H984   0.991       .  S
O982        H983   0.992       .  S
C985        C986   1.403       .  A
C985        C990   1.410       .  A
C986        C987   1.402       .  A
C986        H991   1.083       .  S
C987        C988   1.409       .  A
C987        O992   1.371       .  S
C988        C989   1.404       .  A
C989        C990   1.401       .  A
C989        H993   1.083       .  S
C990        O994   1.372       .  S
O992        H996   0.992       .  S
O994        H995   0.992       .  S
C997        C998   1.404       .  A
C997       C1002   1.409       .  A
C998        C999   1.406       .  A
C998       H1003   1.084       .  S
C999       C1000   1.412       .  A
C999       O1004   1.371   1_565  S
C1000      C1001   1.403       .  A
C1001      C1002   1.398       .  A
C1001      H1005   1.083       .  S
C1002      O1006   1.371       .  S
O1004      H1008   0.993       .  S
O1006      H1007   0.992       .  S
C1009      C1010   1.404       .  A
C1009      C1014   1.407       .  A
C1010      C1011   1.404       .  A
C1010      H1015   1.084       .  S
C1011      C1012   1.410       .  A
C1011      O1016   1.371       .  S
C1012      C1013   1.404       .  A
C1013      C1014   1.398       .  A
C1013      H1017   1.083       .  S
C1014      O1018   1.372       .  S
O1016      H1020   0.992       .  S
O1018      H1019   0.991       .  S
C1021      C1022   1.405       .  A
C1021      C1026   1.410       .  A
C1022      C1023   1.398       .  A
C1022      H1027   1.083       .  S
C1023      C1024   1.408       .  A
C1023      O1028   1.371       .  S
C1024      C1025   1.406       .  A
C1025      C1026   1.403       .  A
C1025      H1029   1.083       .  S
C1026      O1030   1.371       .  S
O1028      H1032   0.992       .  S
O1030      H1031   0.992       .  S
C1033      C1034   1.404       .  A
C1033      C1038   1.408       .  A
C1034      C1035   1.401       .  A
C1034      H1039   1.084       .  S
C1035      C1036   1.409       .  A
C1035      O1040   1.372       .  S
C1036      C1037   1.405       .  A
C1037      C1038   1.402       .  A
C1037      H1041   1.083       .  S
C1038      O1042   1.371       .  S
O1040      H1044   0.992       .  S
O1042      H1043   0.991       .  S
C1045      C1046   1.404       .  A
C1045      C1050   1.411       .  A
C1046      C1047   1.402       .  A
C1046      H1051   1.083       .  S
C1047      C1048   1.411       .  A
C1047      O1052   1.372       .  S
C1048      C1049   1.404       .  A
C1049      C1050   1.402       .  A
C1049      H1053   1.083       .  S
C1050      O1054   1.372       .  S
O1052      H1056   0.992       .  S
O1054      H1055   0.992       .  S
C1057      C1058   1.403       .  A
C1057      C1062   1.408       .  A
C1058      C1059   1.402       .  A
C1058      H1063   1.084       .  S
C1059      C1060   1.411       .  A
C1059      O1064   1.371       .  S
C1060      C1061   1.404       .  A
C1061      C1062   1.400       .  A
C1061      H1065   1.083       .  S
C1062      O1066   1.372       .  S
O1064      H1068   0.991       .  S
O1066      H1067   0.993       .  S
C1069      C1070   1.406       .  A
C1069      C1074   1.411       .  A
C1070      C1071   1.403       .  A
C1070      H1075   1.083       .  S
C1071      C1072   1.407       .  A
C1071      O1076   1.371       .  S
C1072      C1073   1.403       .  A
C1073      C1074   1.399       .  A
C1073      H1077   1.084       .  S
C1074      O1078   1.372       .  S
O1076      H1080   0.991       .  S
O1078      H1079   0.992       .  S
C1081      C1082   1.406       .  A
C1081      C1086   1.411       .  A
C1082      C1083   1.400       .  A
C1082      H1087   1.083       .  S
C1083      C1084   1.408       .  A
C1083      O1088   1.372       .  S
C1084      C1085   1.404       .  A
C1085      C1086   1.400       .  A
C1085      H1089   1.083   1_655  S
C1086      O1090   1.371   1_655  S
O1088      H1092   0.993       .  S
O1090      H1091   0.991   1_455  S
C1093      C1094   1.405       .  A
C1093      C1098   1.408       .  A
C1094      C1095   1.405       .  A
C1094      H1099   1.083       .  S
C1095      C1096   1.409       .  A
C1095      O1100   1.371       .  S
C1096      C1097   1.404       .  A
C1097      C1098   1.399       .  A
C1097      H1101   1.084       .  S
C1098      O1102   1.372       .  S
O1100      H1104   0.991       .  S
O1102      H1103   0.992       .  S
C1105      C1106   1.405       .  A
C1105      C1110   1.411       .  A
C1106      C1107   1.400       .  A
C1106      H1111   1.083       .  S
C1107      C1108   1.409       .  A
C1107      O1112   1.372       .  S
C1108      C1109   1.404       .  A
C1109      C1110   1.402       .  A
C1109      H1113   1.083       .  S
C1110      O1114   1.371       .  S
O1112      H1116   0.992       .  S
O1114      H1115   0.992       .  S
C1117      C1118   1.403       .  A
C1117      C1122   1.410       .  A
C1118      C1119   1.400       .  A
C1118      H1123   1.083       .  S
C1119      C1120   1.411       .  A
C1119      O1124   1.372       .  S
C1120      C1121   1.405       .  A
C1121      C1122   1.402       .  A
C1121      H1125   1.083       .  S
C1122      O1126   1.371       .  S
O1124      H1128   0.993       .  S
O1126      H1127   0.992       .  S
C1129      C1130   1.406   1_556  A
C1129      C1134   1.411       .  A
C1130      C1131   1.401       .  A
C1130      H1135   1.083       .  S
C1131      C1132   1.411   1_554  A
C1131      O1136   1.371       .  S
C1132      C1133   1.405   1_545  A
C1133      C1134   1.401   1_565  A
C1133      H1137   1.083       .  S
C1134      O1138   1.371   1_545  S
O1136      H1140   0.991   1_545  S
O1138      H1139   0.992   1_565  S
C1141      C1142   1.403       .  A
C1141      C1146   1.410       .  A
C1142      C1143   1.399       .  A
C1142      H1147   1.083       .  S
C1143      C1144   1.408       .  A
C1143      O1148   1.372       .  S
C1144      C1145   1.403       .  A
C1145      C1146   1.400       .  A
C1145      H1149   1.084       .  S
C1146      O1150   1.371       .  S
O1148      H1152   0.992       .  S
O1150      H1151   0.992       .  S
C1153      C1154   1.405       .  A
C1153      C1158   1.408       .  A
C1154      C1155   1.401       .  A
C1154      H1159   1.083       .  S
C1155      C1156   1.410       .  A
C1155      O1160   1.372       .  S
C1156      C1157   1.405       .  A
C1157      C1158   1.401       .  A
C1157      H1161   1.083       .  S
C1158      O1162   1.372       .  S
O1160      H1164   0.992       .  S
O1162      H1163   0.992       .  S
C1165      C1166   1.403       .  A
C1165      C1170   1.407       .  A
C1166      C1167   1.403       .  A
C1166      H1171   1.084       .  S
C1167      C1168   1.411       .  A
C1167      O1172   1.371       .  S
C1168      C1169   1.405       .  A
C1169      C1170   1.399       .  A
C1169      H1173   1.083       .  S
C1170      O1174   1.372       .  S
O1172      H1176   0.992       .  S
O1174      H1175   0.992       .  S
C1177      C1178   1.404       .  A
C1177      C1182   1.410       .  A
C1178      C1179   1.402       .  A
C1178      H1183   1.083       .  S
C1179      C1180   1.412       .  A
C1179      O1184   1.371       .  S
C1180      C1181   1.407       .  A
C1181      C1182   1.404       .  A
C1181      H1185   1.083       .  S
C1182      O1186   1.371       .  S
O1184      H1188   0.993       .  S
O1186      H1187   0.991       .  S
C1189      C1190   1.406       .  A
C1189      C1194   1.413       .  A
C1190      C1191   1.402       .  A
C1190      H1195   1.082       .  S
C1191      C1192   1.411       .  A
C1191      O1196   1.371       .  S
C1192      C1193   1.405       .  A
C1193      C1194   1.403       .  A
C1193      H1197   1.083       .  S
C1194      O1198   1.370       .  S
O1196      H1200   0.994       .  S
O1198      H1199   0.995       .  S
C1201      C1202   1.403       .  A
C1201      C1206   1.408       .  A
C1202      C1203   1.399       .  A
C1202      H1207   1.083       .  S
C1203      C1204   1.411       .  A
C1203      O1208   1.371       .  S
C1204      C1205   1.407       .  A
C1205      C1206   1.404       .  A
C1205      H1209   1.083       .  S
C1206      O1210   1.371       .  S
O1208      H1212   0.993       .  S
O1210      H1211   0.992       .  S
C1213      C1214   1.404       .  A
C1213      C1218   1.410       .  A
C1214      C1215   1.399       .  A
C1214      H1219   1.083       .  S
C1215      C1216   1.409       .  A
C1215      O1220   1.372       .  S
C1216      C1217   1.405       .  A
C1217      C1218   1.403       .  A
C1217      H1221   1.083       .  S
C1218      O1222   1.371       .  S
O1220      H1224   0.992       .  S
O1222      H1223   0.992       .  S
C1225      C1226   1.405       .  A
C1225      C1230   1.409       .  A
C1226      C1227   1.404       .  A
C1226      H1231   1.083       .  S
C1227      C1228   1.410       .  A
C1227      O1232   1.372       .  S
C1228      C1229   1.403       .  A
C1229      C1230   1.398       .  A
C1229      H1233   1.083       .  S
C1230      O1234   1.372       .  S
O1232      H1236   0.992       .  S
O1234      H1235   0.992       .  S
C1237      C1238   1.405   1_554  A
C1237      C1242   1.410       .  A
C1238      C1239   1.397       .  A
C1238      H1243   1.083       .  S
C1239      C1240   1.409   1_556  A
C1239      O1244   1.371       .  S
C1240      C1241   1.406       .  A
C1241      C1242   1.401       .  A
C1241      H1245   1.083       .  S
C1242      O1246   1.371       .  S
O1244      H1248   0.992       .  S
O1246      H1247   0.991       .  S
C1249      C1250   1.404       .  A
C1249      C1254   1.409       .  A
C1250      C1251   1.400       .  A
C1250      H1255   1.083       .  S
C1251      C1252   1.407       .  A
C1251      O1256   1.371       .  S
C1252      C1253   1.403       .  A
C1253      C1254   1.397       .  A
C1253      H1257   1.084       .  S
C1254      O1258   1.372       .  S
O1256      H1260   0.992       .  S
O1258      H1259   0.991       .  S
C1261      C1262   1.404       .  A
C1261      C1266   1.411       .  A
C1262      C1263   1.398       .  A
C1262      H1267   1.083       .  S
C1263      C1264   1.410       .  A
C1263      O1268   1.371       .  S
C1264      C1265   1.405       .  A
C1265      C1266   1.404       .  A
C1265      H1269   1.083       .  S
C1266      O1270   1.371       .  S
O1268      H1272   0.991       .  S
O1270      H1271   0.992       .  S
C1273      C1274   1.405       .  A
C1273      C1278   1.408       .  A
C1274      C1275   1.403       .  A
C1274      H1279   1.084       .  S
C1275      C1276   1.410       .  A
C1275      O1280   1.371       .  S
C1276      C1277   1.404       .  A
C1277      C1278   1.401       .  A
C1277      H1281   1.083       .  S
C1278      O1282   1.371       .  S
O1280      H1284   0.992       .  S
O1282      H1283   0.991       .  S
C1285      C1286   1.405       .  A
C1285      C1290   1.409       .  A
C1286      C1287   1.404       .  A
C1286      H1291   1.083       .  S
C1287      C1288   1.410       .  A
C1287      O1292   1.372       .  S
C1288      C1289   1.404       .  A
C1289      C1290   1.401       .  A
C1289      H1293   1.083       .  S
C1290      O1294   1.372       .  S
O1292      H1296   0.992       .  S
O1294      H1295   0.991       .  S
C1297      C1298   1.405       .  A
C1297      C1302   1.409       .  A
C1298      C1299   1.404       .  A
C1298      H1303   1.083       .  S
C1299      C1300   1.412       .  A
C1299      O1304   1.371       .  S
C1300      C1301   1.405       .  A
C1301      C1302   1.401       .  A
C1301      H1305   1.083       .  S
C1302      O1306   1.372       .  S
O1304      H1308   0.991       .  S
O1306      H1307   0.992       .  S
C1309      C1310   1.405       .  A
C1309      C1314   1.411       .  A
C1310      C1311   1.405       .  A
C1310      H1315   1.083       .  S
C1311      C1312   1.409       .  A
C1311      O1316   1.371       .  S
C1312      C1313   1.402       .  A
C1313      C1314   1.398       .  A
C1313      H1317   1.084       .  S
C1314      O1318   1.371       .  S
O1316      H1320   0.991       .  S
O1318      H1319   0.991       .  S
C1321      C1322   1.405       .  A
C1321      C1326   1.412       .  A
C1322      C1323   1.403       .  A
C1322      H1327   1.083       .  S
C1323      C1324   1.411       .  A
C1323      O1328   1.372       .  S
C1324      C1325   1.404       .  A
C1325      C1326   1.403       .  A
C1325      H1329   1.083       .  S
C1326      O1330   1.372       .  S
O1328      H1332   0.992       .  S
O1330      H1331   0.992       .  S
C1333      C1334   1.404       .  A
C1333      C1338   1.409       .  A
C1334      C1335   1.400       .  A
C1334      H1339   1.083       .  S
C1335      C1336   1.412       .  A
C1335      O1340   1.371       .  S
C1336      C1337   1.405       .  A
C1337      C1338   1.399       .  A
C1337      H1341   1.083       .  S
C1338      O1342   1.371       .  S
O1340      H1344   0.991       .  S
O1342      H1343   0.992       .  S
C1345      C1346   1.405       .  A
C1345      C1350   1.410       .  A
C1346      C1347   1.403       .  A
C1346      H1351   1.083       .  S
C1347      C1348   1.409       .  A
C1347      O1352   1.371       .  S
C1348      C1349   1.404       .  A
C1349      C1350   1.400       .  A
C1349      H1353   1.083       .  S
C1350      O1354   1.372       .  S
O1352      H1356   0.991       .  S
O1354      H1355   0.992       .  S
C1357      C1358   1.404       .  A
C1357      C1362   1.412       .  A
C1358      C1359   1.397       .  A
C1358      H1363   1.083       .  S
C1359      C1360   1.408       .  A
C1359      O1364   1.372       .  S
C1360      C1361   1.406       .  A
C1361      C1362   1.405       .  A
C1361      H1365   1.083       .  S
C1362      O1366   1.371       .  S
O1364      H1368   0.992       .  S
O1366      H1367   0.992       .  S
C1369      C1370   1.405       .  A
C1369      C1374   1.411       .  A
C1370      C1371   1.401   1_556  A
C1370      H1375   1.083   1_556  S
C1371      C1372   1.410   1_554  A
C1371      O1376   1.371       .  S
C1372      C1373   1.404       .  A
C1373      C1374   1.400       .  A
C1373      H1377   1.083       .  S
C1374      O1378   1.371       .  S
O1376      H1380   0.992   1_554  S
O1378      H1379   0.992   1_556  S
C1381      C1382   1.403       .  A
C1381      C1386   1.410       .  A
C1382      C1383   1.402       .  A
C1382      H1387   1.083       .  S
C1383      C1384   1.410       .  A
C1383      O1388   1.372       .  S
C1384      C1385   1.403       .  A
C1385      C1386   1.400       .  A
C1385      H1389   1.083       .  S
C1386      O1390   1.371       .  S
O1388      H1392   0.992       .  S
O1390      H1391   0.993       .  S
C1393      C1394   1.406       .  A
C1393      C1398   1.411       .  A
C1394      C1395   1.404       .  A
C1394      H1399   1.083       .  S
C1395      C1396   1.408       .  A
C1395      O1400   1.371       .  S
C1396      C1397   1.403       .  A
C1397      C1398   1.401       .  A
C1397      H1401   1.084       .  S
C1398      O1402   1.372       .  S
O1400      H1404   0.990       .  S
O1402      H1403   0.992       .  S
