geometry optimzed in LAMMPS
_audit_creation_date              2020-12-01 
_audit_creation_method            'lammps2cif' 
_symmetry_space_group_name_H-M    'P1' 
_symmetry_Int_Tables_number       1 
_symmetry_cell_setting            triclinic 
loop_ 
_symmetry_equiv_pos_as_xyz 
  x,y,z 
_cell_length_a                    52.01769274 
_cell_length_b                    44.73732271006364 
_cell_length_c                    44.36771238614291 
_cell_angle_alpha                 90.00385108529912 
_cell_angle_beta                  89.99489771369998 
_cell_angle_gamma                 90.00009664278639 
loop_ 
_atom_site_label 
_atom_site_type_symbol 
_atom_site_fract_x 
_atom_site_fract_y 
_atom_site_fract_z 
_atom_site_charge 
N1          N  0.35650340  0.93591904  0.53900411    -0.25300
N2          N  0.37984916  0.94727828  0.53604358    -0.33200
C3          C  0.38113963  0.96277943  0.51019016     0.03000
C4          C  0.35753690  0.96116075  0.49624710     0.09100
C5          C  0.34228525  0.94393141  0.51491791    -0.04000
H6          H  0.39842116  0.97305647  0.50142169     0.09700
H7          H  0.32283625  0.93649194  0.51062995     0.10900
Cu8        Cu  0.41031369  0.93811110  0.56443509     0.44200
Cu9        Cu  0.34652670  0.90698613  0.57375841     0.42000
Cu10       Cu  0.40010839  0.88512064  0.62297368     0.43900
N11         N  0.43960662  0.92223386  0.59146397    -0.32700
N12         N  0.43599061  0.90243726  0.61314891    -0.26900
C13         C  0.45893991  0.89459008  0.62474687    -0.03000
C14         C  0.47768749  0.91040046  0.60955727     0.09200
C15         C  0.46488977  0.92761272  0.58861697     0.03000
H16         H  0.46176800  0.87779945  0.64196693     0.10600
H17         H  0.47335003  0.94196340  0.57168883     0.09700
N18         N  0.36343772  0.86742133  0.62537419    -0.34100
N19         N  0.34399952  0.87507114  0.60771236    -0.26300
C20         C  0.32380105  0.85724635  0.61387119    -0.01600
C21         C  0.33106864  0.83764265  0.63633895     0.07100
C22         C  0.35616289  0.84464564  0.64315477     0.05200
H23         H  0.30560620  0.85779914  0.60208204     0.10300
H24         H  0.36858691  0.83329765  0.65900742     0.09100
N25         N  0.67324838  0.92829525  0.52574238    -0.25300
N26         N  0.65013045  0.94055470  0.52477265    -0.33200
C27         C  0.64837896  0.95799901  0.50026367     0.03000
C28         C  0.67146049  0.95670300  0.48514206     0.09100
C29         C  0.68686941  0.93763134  0.50167367    -0.04000
H30         H  0.63114299  0.96961302  0.49324307     0.09700
H31         H  0.70604323  0.93011449  0.49603460     0.10900
Cu32       Cu  0.62074617  0.93073261  0.55440047     0.44200
Cu33       Cu  0.68379559  0.89751700  0.55848624     0.42000
Cu34       Cu  0.63236831  0.87604157  0.61124829     0.43900
N35         N  0.59254921  0.91553111  0.58328508    -0.32700
N36         N  0.59660408  0.89518995  0.60434940    -0.26900
C37         C  0.57415482  0.88891776  0.61810475    -0.03000
C38         C  0.55531689  0.90630786  0.60493075     0.09200
C39         C  0.56751370  0.92281028  0.58296959     0.03000
H40         H  0.57167808  0.87243342  0.63569790     0.10600
H41         H  0.55876473  0.93831507  0.56732811     0.09700
N42         N  0.66929818  0.85869821  0.61171961    -0.34100
N43         N  0.68785334  0.86625079  0.59274620    -0.26300
C44         C  0.70888592  0.84980453  0.59887526    -0.01600
C45         C  0.70313940  0.83120921  0.62273724     0.07100
C46         C  0.67802498  0.83732098  0.63037088     0.05200
H47         H  0.72680702  0.85100224  0.58656742     0.10300
H48         H  0.66674320  0.82669665  0.64782605     0.09100
N49         N  0.66997515  0.02003849  0.36095704    -0.25300
N50         N  0.64704162  0.00744996  0.36306510    -0.33200
C51         C  0.64629279  0.99014949  0.38774913     0.03000
C52         C  0.66984025  0.99188593  0.40179440     0.09100
C53         C  0.68448119  0.01106285  0.38444533    -0.04000
H54         H  0.62943408  0.97832835  0.39562427     0.09700
H55         H  0.70374953  0.01888290  0.38914727     0.10900
Cu56       Cu  0.61656382  0.01669942  0.33480834     0.44200
Cu57       Cu  0.67912073  0.05078343  0.32758054     0.42000
Cu58       Cu  0.62578450  0.07138379  0.27730061     0.43900
N59         N  0.58722347  0.03180075  0.30748607    -0.32700
N60         N  0.59039629  0.05214762  0.28621952    -0.26900
C61         C  0.56739209  0.05851114  0.27384920    -0.03000
C62         C  0.54911815  0.04116294  0.28811972     0.09200
C63         C  0.56221727  0.02460177  0.30930548     0.03000
H64         H  0.56417977  0.07508095  0.25650459     0.10600
H65         H  0.55411631  0.00917569  0.32549656     0.09700
N66         N  0.66243240  0.08933686  0.27504824    -0.34100
N67         N  0.68169025  0.08212684  0.29316798    -0.26300
C68         C  0.70220525  0.09915388  0.28627840    -0.01600
C69         C  0.69538084  0.11777307  0.26282024     0.07100
C70         C  0.67017343  0.11105942  0.25620146     0.05200
H71         H  0.72047365  0.09842647  0.29789924     0.10300
H72         H  0.65812604  0.12160830  0.23941659     0.09100
N73         N  0.35356997  0.01535775  0.36759523    -0.25300
N74         N  0.37682394  0.00347156  0.36908964    -0.33200
C75         C  0.37897452  0.98779828  0.39476618     0.03000
C76         C  0.35602602  0.98985425  0.41010637     0.09100
C77         C  0.34028374  0.00752294  0.39245605    -0.04000
H78         H  0.39643034  0.97706440  0.40242899     0.09700
H79         H  0.32116435  0.01534999  0.39792443     0.10900
Cu80       Cu  0.40608089  0.01200850  0.33877576     0.44200
Cu81       Cu  0.34247592  0.04463505  0.33362127     0.42000
Cu82       Cu  0.39374479  0.06530498  0.28087252     0.43900
N83         N  0.43412443  0.02715116  0.30954801    -0.32700
N84         N  0.42971216  0.04700916  0.28811947    -0.26900
C85         C  0.45213041  0.05429536  0.27484564    -0.03000
C86         C  0.47136751  0.03806255  0.28866421     0.09200
C87         C  0.45941262  0.02117897  0.31054425     0.03000
H88         H  0.45433563  0.07104145  0.25745505     0.10600
H89         H  0.46851313  0.00669375  0.32688761     0.09700
N90         N  0.35732287  0.08384404  0.28091583    -0.34100
N91         N  0.33868227  0.07658809  0.29987807    -0.26300
C92         C  0.31838401  0.09462091  0.29489459    -0.01600
C93         C  0.32475695  0.11396007  0.27182580     0.07100
C94         C  0.34942938  0.10657815  0.26344353     0.05200
H95         H  0.30071496  0.09428116  0.30774568     0.10300
H96         H  0.36113699  0.11752908  0.24658863     0.09100
N97         N  0.35328669  0.43414168  0.36815536    -0.25300
N98         N  0.37659130  0.44588095  0.36973176    -0.33200
C99         C  0.37888497  0.46116414  0.39563127     0.03000
C100        C  0.35597857  0.45900150  0.41103982     0.09100
C101        C  0.34010649  0.44168593  0.39318740    -0.04000
H102        H  0.39640051  0.47171566  0.40336574     0.09700
H103        H  0.32096274  0.43390722  0.39860609     0.10900
Cu104      Cu  0.40571043  0.43764322  0.33916125     0.44200
Cu105      Cu  0.34200278  0.40541792  0.33377801     0.42000
Cu106      Cu  0.39314942  0.38509186  0.28065742     0.43900
N107        N  0.43365911  0.42278088  0.30967180    -0.32700
N108        N  0.42917309  0.40317674  0.28802630    -0.26900
C109        C  0.45155890  0.39595952  0.27463744    -0.03000
C110        C  0.47085003  0.41197732  0.28861039     0.09200
C111        C  0.45896084  0.42865778  0.31069690     0.03000
H112        H  0.45370639  0.37938263  0.25707111     0.10600
H113        H  0.46811669  0.44291008  0.32720750     0.09700
N114        N  0.35665508  0.36675991  0.28056509    -0.34100
N115        N  0.33806184  0.37389164  0.29964131    -0.26300
C116        C  0.31772109  0.35595657  0.29453540    -0.01600
C117        C  0.32401538  0.33682000  0.27126352     0.07100
C118        C  0.34868776  0.34420933  0.26289845     0.05200
H119        H  0.30010071  0.35617162  0.30748109     0.10300
H120        H  0.36036694  0.33333490  0.24596478     0.09100
N121        N  0.66935936  0.43018030  0.36124276    -0.25300
N122        N  0.64633209  0.44250366  0.36352348    -0.33200
C123        C  0.64552919  0.45968069  0.38829490     0.03000
C124        C  0.66913978  0.45813686  0.40221587     0.09100
C125        C  0.68387560  0.43920801  0.38470122    -0.04000
H126        H  0.62860064  0.47127019  0.39631547     0.09700
H127        H  0.70321741  0.43156558  0.38928060     0.10900
Cu128      Cu  0.61584522  0.43303493  0.33536277     0.44200
Cu129      Cu  0.67861650  0.39962123  0.32773660     0.42000
Cu130      Cu  0.62526589  0.37831948  0.27783029     0.43900
N131        N  0.58659882  0.41785890  0.30795138    -0.32700
N132        N  0.58983697  0.39751525  0.28669001    -0.26900
C133        C  0.56687572  0.39120499  0.27418012    -0.03000
C134        C  0.54856654  0.40858292  0.28835384     0.09200
C135        C  0.56159625  0.42510447  0.30962886     0.03000
H136        H  0.56371753  0.37467959  0.25677655     0.10600
H137        H  0.55345211  0.44056682  0.32575745     0.09700
N138        N  0.66204471  0.36071118  0.27542374    -0.34100
N139        N  0.68132232  0.36822289  0.29338946    -0.26300
C140        C  0.70197005  0.35145230  0.28640292    -0.01600
C141        C  0.69521822  0.33267860  0.26303898     0.07100
C142        C  0.66990752  0.33903750  0.25658051     0.05200
H143        H  0.72028995  0.35246345  0.29789152     0.10300
H144        H  0.65788769  0.32829872  0.23989071     0.09100
N145        N  0.35631915  0.51305399  0.53981894    -0.25300
N146        N  0.37955624  0.50129313  0.53728328    -0.33200
C147        C  0.38086886  0.48541627  0.51165402     0.03000
C148        C  0.35739443  0.48720845  0.49742197     0.09100
C149        C  0.34220651  0.50493051  0.51568838    -0.04000
H150        H  0.39812314  0.47485292  0.50316275     0.09700
H151        H  0.32291891  0.51270838  0.51102565     0.10900
Cu152      Cu  0.40996380  0.51061081  0.56575178     0.44200
Cu153      Cu  0.34638652  0.54284309  0.57386095     0.42000
Cu154      Cu  0.39982214  0.56507592  0.62297161     0.43900
N155        N  0.43923746  0.52688264  0.59261547    -0.32700
N156        N  0.43562935  0.54720825  0.61380344    -0.26900
C157        C  0.45857239  0.55525301  0.62527932    -0.03000
C158        C  0.47731782  0.53902449  0.61054117     0.09200
C159        C  0.46451773  0.52135687  0.58998107     0.03000
H160        H  0.46140737  0.57249887  0.64203699     0.10600
H161        H  0.47298463  0.50663723  0.57338008     0.09700
N162        N  0.36332614  0.58332295  0.62470534    -0.34100
N163        N  0.34391284  0.57554588  0.60706473    -0.26300
C164        C  0.32379799  0.59363886  0.61281974    -0.01600
C165        C  0.33110720  0.61355579  0.63499836     0.07100
C166        C  0.35612742  0.60644698  0.64206761     0.05200
H167        H  0.30559979  0.59294862  0.60104709     0.10300
H168        H  0.36852353  0.61785348  0.65790944     0.09100
N169        N  0.67270551  0.52153826  0.52621513    -0.25300
N170        N  0.64967876  0.50903494  0.52548267    -0.33200
C171        C  0.64791906  0.49148671  0.50104442     0.03000
C172        C  0.67090280  0.49297668  0.48572932     0.09100
C173        C  0.68625467  0.51226629  0.50206976    -0.04000
H174        H  0.63071722  0.47972219  0.49416645     0.09700
H175        H  0.70531264  0.52001864  0.49621548     0.10900
Cu176      Cu  0.62036840  0.51883408  0.55523157     0.44200
Cu177      Cu  0.68318380  0.55265868  0.55863993     0.42000
Cu178      Cu  0.63185327  0.57447584  0.61131255     0.43900
N179        N  0.59218474  0.53424831  0.58403407    -0.32700
N180        N  0.59617290  0.55493406  0.60477908    -0.26900
C181        C  0.57371341  0.56123762  0.61850522    -0.03000
C182        C  0.55494182  0.54350983  0.60565095     0.09200
C183        C  0.56718857  0.52677796  0.58390424     0.03000
H184        H  0.57117974  0.57796365  0.63585476     0.10600
H185        H  0.55849284  0.51098365  0.56851658     0.09700
N186        N  0.66873819  0.59201588  0.61147197    -0.34100
N187        N  0.68726068  0.58430958  0.59251791    -0.26300
C188        C  0.70830004  0.60081961  0.59843358    -0.01600
C189        C  0.70259803  0.61963189  0.62213593     0.07100
C190        C  0.67749918  0.61356803  0.62990488     0.05200
H191        H  0.72621544  0.59946604  0.58613066     0.10300
H192        H  0.66627271  0.62428839  0.64735082     0.09100
N193        N  0.86305359  0.93138782  0.86104180    -0.25300
N194        N  0.88585263  0.94436138  0.86273723    -0.33200
C195        C  0.88664001  0.96184321  0.88729669     0.03000
C196        C  0.86325830  0.95981311  0.90169090     0.09100
C197        C  0.84868726  0.94028084  0.88467408    -0.04000
H198        H  0.90349215  0.97380119  0.89497944     0.09700
H199        H  0.82964438  0.93200112  0.88982373     0.10900
Cu200      Cu  0.91627290  0.93498467  0.83442891     0.44200
Cu201      Cu  0.85400848  0.89990941  0.82833101     0.42000
Cu202      Cu  0.90743418  0.87825390  0.77876660     0.43900
N203        N  0.94560949  0.91962922  0.80723227    -0.32700
N204        N  0.94259616  0.89851780  0.78669835    -0.26900
C205        C  0.96557747  0.89238704  0.77413988    -0.03000
C206        C  0.98366394  0.91068490  0.78751071     0.09200
C207        C  0.97048314  0.92755568  0.80838131     0.03000
H208        H  0.96891276  0.87539719  0.75724251     0.10600
H209        H  0.97845305  0.94374456  0.82389116     0.09700
N210        N  0.87079085  0.86018526  0.77676205    -0.34100
N211        N  0.85146629  0.86784377  0.79459783    -0.26300
C212        C  0.83086786  0.85092086  0.78777471    -0.01600
C213        C  0.83770541  0.83188948  0.76465228     0.07100
C214        C  0.86300988  0.83826476  0.75816519     0.05200
H215        H  0.81249303  0.85209523  0.79912878     0.10300
H216        H  0.87504918  0.82746515  0.74153165     0.09100
N217        N  0.17856389  0.93693284  0.86669889    -0.25300
N218        N  0.15550271  0.94934161  0.86786606    -0.33200
C219        C  0.15322643  0.96468247  0.89373757     0.03000
C220        C  0.17589964  0.96183481  0.90951461     0.09100
C221        C  0.19159201  0.94406330  0.89193705    -0.04000
H222        H  0.13580568  0.97557888  0.90127892     0.09700
H223        H  0.21041806  0.93555490  0.89775308     0.10900
Cu224      Cu  0.12653436  0.94149668  0.83697587     0.44200
Cu225      Cu  0.18960674  0.90757226  0.83288976     0.42000
Cu226      Cu  0.13887798  0.88753326  0.77942114     0.43900
N227        N  0.09863356  0.92644082  0.80749883    -0.32700
N228        N  0.10303405  0.90637081  0.78625783    -0.26900
C229        C  0.08060478  0.89897701  0.77307199    -0.03000
C230        C  0.06137185  0.91535464  0.78673378     0.09200
C231        C  0.07334633  0.93243685  0.80844296     0.03000
H232        H  0.07836591  0.88192797  0.75598685     0.10600
H233        H  0.06423791  0.94692944  0.82477806     0.09700
N234        N  0.17500241  0.86818992  0.78032706    -0.34100
N235        N  0.19344106  0.87526363  0.79961746    -0.26300
C236        C  0.21349755  0.85669693  0.79540596    -0.01600
C237        C  0.20718828  0.83718116  0.77248688     0.07100
C238        C  0.18280231  0.84502018  0.76337794     0.05200
H239        H  0.23092258  0.85679112  0.80870787     0.10300
H240        H  0.17119714  0.83407485  0.74642301     0.09100
N241        N  0.85974458  0.02064687  0.02704702    -0.25300
N242        N  0.88229581  0.00700480  0.02691550    -0.33200
C243        C  0.88403584  0.98976098  0.00224669     0.03000
C244        C  0.86153082  0.99266008  0.98616706     0.09100
C245        C  0.84649922  0.01244730  0.00229677    -0.04000
H246        H  0.90098618  0.97732822  0.99571086     0.09700
H247        H  0.82794311  0.02131926  0.99587594     0.10900
Cu248      Cu  0.91124522  0.01524867  0.05763699     0.44200
Cu249      Cu  0.84961681  0.05197629  0.05938110     0.42000
Cu250      Cu  0.90074619  0.07250257  0.11257713     0.43900
N251        N  0.93947510  0.03007092  0.08671727    -0.32700
N252        N  0.93588456  0.05141106  0.10688716    -0.26900
C253        C  0.95841562  0.05732542  0.12061782    -0.03000
C254        C  0.97681542  0.03864908  0.10840723     0.09200
C255        C  0.96428152  0.02177978  0.08699454     0.03000
H256        H  0.96129481  0.07452873  0.13740921     0.10600
H257        H  0.97271006  0.00547828  0.07194222     0.09700
N258        N  0.86420565  0.09100541  0.11234239    -0.34100
N259        N  0.84572017  0.08368005  0.09319646    -0.26300
C260        C  0.82485763  0.10054030  0.09894296    -0.01600
C261        C  0.83063083  0.11919245  0.12274266     0.07100
C262        C  0.85559580  0.11267261  0.13074361     0.05200
H263        H  0.80700583  0.09950201  0.08648497     0.10300
H264        H  0.86681679  0.12311409  0.14836319     0.09100
N265        N  0.17517359  0.01226083  0.03971333    -0.25300
N266        N  0.15204146  0.00026728  0.03700354    -0.33200
C267        C  0.15076868  0.98508270  0.01095187     0.03000
C268        C  0.17416361  0.98759122  0.99664936     0.09100
C269        C  0.18925765  0.00499985  0.01529473    -0.04000
H270        H  0.13357941  0.97453785  0.00225902     0.09700
H271        H  0.20843323  0.01319633  0.01071797     0.10900
Cu272      Cu  0.12171259  0.00842812  0.06593523     0.44200
Cu273      Cu  0.18497275  0.04134943  0.07432931     0.42000
Cu274      Cu  0.13167728  0.06230834  0.12397861     0.43900
N275        N  0.09255963  0.02355830  0.09363911    -0.32700
N276        N  0.09608793  0.04364284  0.11508291    -0.26900
C277        C  0.07315708  0.05093693  0.12709299    -0.03000
C278        C  0.05451029  0.03447428  0.11244886     0.09200
C279        C  0.06735095  0.01745033  0.09137610     0.03000
H280        H  0.07022878  0.06789109  0.14413103     0.10600
H281        H  0.05892731  0.00283342  0.07465588     0.09700
N282        N  0.16799586  0.08112650  0.12564468    -0.34100
N283        N  0.18737543  0.07369463  0.10780580    -0.26300
C284        C  0.20734179  0.09203315  0.11342164    -0.01600
C285        C  0.19999398  0.11177032  0.13573069     0.07100
C286        C  0.17508320  0.10429754  0.14302057     0.05200
H287        H  0.22542637  0.09169615  0.10139133     0.10300
H288        H  0.16266133  0.11553643  0.15895850     0.09100
N289        N  0.86316349  0.51966646  0.86181402    -0.25300
N290        N  0.88611199  0.50713032  0.86396676    -0.33200
C291        C  0.88686303  0.48985462  0.88866482     0.03000
C292        C  0.86329836  0.49156032  0.90267232     0.09100
C293        C  0.84864904  0.51069042  0.88528998    -0.04000
H294        H  0.90376399  0.47818771  0.89664535     0.09700
H295        H  0.82941077  0.51858608  0.89003528     0.10900
Cu296      Cu  0.91663334  0.51660711  0.83588772     0.44200
Cu297      Cu  0.85408230  0.55055481  0.82857528     0.42000
Cu298      Cu  0.90772101  0.57229601  0.77921928     0.43900
N299        N  0.94596279  0.53158373  0.80851286    -0.32700
N300        N  0.94293968  0.55230361  0.78758314    -0.26900
C301        C  0.96590497  0.55810751  0.77482322    -0.03000
C302        C  0.98397929  0.54000428  0.78848894     0.09200
C303        C  0.97081470  0.52359003  0.80972956     0.03000
H304        H  0.96922678  0.57468491  0.75751385     0.10600
H305        H  0.97876811  0.50759833  0.82545540     0.09700
N306        N  0.87091252  0.58988503  0.77670066    -0.34100
N307        N  0.85153308  0.58216050  0.79442771    -0.26300
C308        C  0.83083891  0.59878200  0.78727828    -0.01600
C309        C  0.83765933  0.61768592  0.76405397     0.07100
C310        C  0.86306329  0.61155827  0.75784920     0.05200
H311        H  0.81242309  0.59754508  0.79853193     0.10300
H312        H  0.87513228  0.62240512  0.74127710     0.09100
N313        N  0.17894801  0.51376436  0.86703354    -0.25300
N314        N  0.15588913  0.50136621  0.86836957    -0.33200
C315        C  0.15366396  0.48623809  0.89437068     0.03000
C316        C  0.17636629  0.48921035  0.91006354     0.09100
C317        C  0.19202871  0.50683774  0.89229664    -0.04000
H318        H  0.13627645  0.47534089  0.90201527     0.09700
H319        H  0.21089550  0.51532799  0.89795769     0.10900
Cu320      Cu  0.12689049  0.50882015  0.83741875     0.44200
Cu321      Cu  0.18994023  0.54269842  0.83281999     0.42000
Cu322      Cu  0.13917287  0.56185907  0.77902163     0.43900
N323        N  0.09893677  0.52347142  0.80780282    -0.32700
N324        N  0.10332462  0.54320438  0.78624371    -0.26900
C325        C  0.08087258  0.55052513  0.77307650    -0.03000
C326        C  0.06163321  0.53445287  0.78708191     0.09200
C327        C  0.07363009  0.51762287  0.80897457     0.03000
H328        H  0.07862491  0.56737555  0.75579642     0.10600
H329        H  0.06452826  0.50346202  0.82560496     0.09700
N330        N  0.17527820  0.58123754  0.77962328    -0.34100
N331        N  0.19372019  0.57448807  0.79902727    -0.26300
C332        C  0.21372945  0.59306526  0.79457892    -0.01600
C333        C  0.20739072  0.61224207  0.77138591     0.07100
C334        C  0.18302864  0.60420493  0.76236790     0.05200
H335        H  0.23112076  0.59325687  0.80794103     0.10300
H336        H  0.17138351  0.61492697  0.74530736     0.09100
N337        N  0.85992108  0.42998581  0.02753272    -0.25300
N338        N  0.88245074  0.44367058  0.02736261    -0.33200
C339        C  0.88406374  0.46106636  0.00279649     0.03000
C340        C  0.86149280  0.45822229  0.98683495     0.09100
C341        C  0.84655928  0.43830255  0.00291312    -0.04000
H342        H  0.90096293  0.47358750  0.99625107     0.09700
H343        H  0.82798301  0.42944384  0.99655133     0.10900
Cu344      Cu  0.91149342  0.43533796  0.05792594     0.44200
Cu345      Cu  0.84996338  0.39853077  0.05977087     0.42000
Cu346      Cu  0.90121908  0.37786536  0.11274989     0.43900
N347        N  0.93980408  0.42048690  0.08686955    -0.32700
N348        N  0.93630776  0.39907643  0.10698528    -0.26900
C349        C  0.95887755  0.39323423  0.12066150    -0.03000
C350        C  0.97719764  0.41203183  0.10847284     0.09200
C351        C  0.96458081  0.42889514  0.08712898     0.03000
H352        H  0.96183192  0.37602540  0.13742657     0.10600
H353        H  0.97292807  0.44530160  0.07213243     0.09700
N354        N  0.86466659  0.35936132  0.11256905    -0.34100
N355        N  0.84615220  0.36675765  0.09349067    -0.26300
C356        C  0.82528371  0.34991601  0.09922999    -0.01600
C357        C  0.83107488  0.33119288  0.12295377     0.07100
C358        C  0.85606177  0.33765359  0.13092641     0.05200
H359        H  0.80741096  0.35102270  0.08681996     0.10300
H360        H  0.86729509  0.32715305  0.14849889     0.09100
N361        N  0.17561418  0.43809661  0.03993010    -0.25300
N362        N  0.15258833  0.45040391  0.03739409    -0.33200
C363        C  0.15141747  0.46586522  0.01150182     0.03000
C364        C  0.17476840  0.46322236  0.99712147     0.09100
C365        C  0.18972685  0.44543445  0.01555513    -0.04000
H366        H  0.13430827  0.47669324  0.00294882     0.09700
H367        H  0.20881252  0.43703365  0.01084250     0.10900
Cu368      Cu  0.12221324  0.44235775  0.06630925     0.44200
Cu369      Cu  0.18520681  0.40850776  0.07421464     0.42000
Cu370      Cu  0.13186595  0.38800685  0.12394600     0.43900
N371        N  0.09298782  0.42737230  0.09400449    -0.32700
N372        N  0.09642317  0.40713771  0.11532168    -0.26900
C373        C  0.07346392  0.39990768  0.12728717    -0.03000
C374        C  0.05488748  0.41656296  0.11275107     0.09200
C375        C  0.06780312  0.43364096  0.09178172     0.03000
H376        H  0.07045701  0.38280994  0.14415722     0.10600
H377        H  0.05943674  0.44835045  0.07510671     0.09700
N378        N  0.16792795  0.36853149  0.12523617    -0.34100
N379        N  0.18733548  0.37578841  0.10736750    -0.26300
C380        C  0.20711198  0.35711340  0.11278842    -0.01600
C381        C  0.19960162  0.33733518  0.13498986     0.07100
C382        C  0.17479966  0.34514072  0.14242826     0.05200
H383        H  0.22519817  0.35731592  0.10075909     0.10300
H384        H  0.16232156  0.33404619  0.15840705     0.09100
O385        O  0.27220776  0.75745709  0.66454640    -0.70900
O386        O  0.23549403  0.69322570  0.71060844    -0.71900
O387        O  0.23548420  0.75694087  0.71121602    -0.60500
O388        O  0.27221793  0.69361080  0.66391472    -0.69000
O389        O  0.30343309  0.69331802  0.69814102    -0.68500
O390        O  0.26666502  0.75673861  0.74548965    -0.59800
O391        O  0.26667819  0.69285229  0.74487693    -0.72300
O392        O  0.30342645  0.75713858  0.69876980    -0.71100
Cu393      Cu  0.25274406  0.72531910  0.68638527     1.04600
Cu394      Cu  0.28617178  0.72499895  0.72302168     1.04300
C395        C  0.29336313  0.76770660  0.67479307     0.95200
C396        C  0.24551597  0.68264454  0.73459342     0.94400
C397        C  0.24550122  0.76711662  0.73538213     0.86500
C398        C  0.29337813  0.68318638  0.67396427     0.92800
O399        O  0.80540914  0.75666801  0.69796712    -0.70900
O400        O  0.76658989  0.69345442  0.65265536    -0.71900
O401        O  0.76673440  0.75698170  0.65301506    -0.60500
O402        O  0.80529418  0.69310188  0.69759448    -0.69000
O403        O  0.77537628  0.69296753  0.73338384    -0.68500
O404        O  0.73682960  0.75682921  0.68882419    -0.59800
O405        O  0.73669670  0.69341113  0.68847673    -0.72300
O406        O  0.77548505  0.75656544  0.73374886    -0.71100
Cu407      Cu  0.78708632  0.72505370  0.67406025     1.04600
Cu408      Cu  0.75504149  0.72493681  0.71236836     1.04300
C409        C  0.79645183  0.76663137  0.72279844     0.95200
C410        C  0.74556525  0.68351729  0.66358338     0.94400
C411        C  0.74575519  0.76693116  0.66404330     0.86500
C412        C  0.79631535  0.68293313  0.72232524     0.92800
O413        O  0.25850829  0.19275747  0.16292279    -0.70900
O414        O  0.29528853  0.25704869  0.20898257    -0.71900
O415        O  0.29559707  0.19329419  0.20927489    -0.60500
O416        O  0.25821200  0.25666698  0.16261632    -0.69000
O417        O  0.22723656  0.25660603  0.19714554    -0.68500
O418        O  0.26462680  0.19320654  0.24381180    -0.59800
O419        O  0.26431678  0.25705186  0.24351851    -0.72300
O420        O  0.22753516  0.19277574  0.19745589    -0.71100
Cu421      Cu  0.27799873  0.22494313  0.18473477     1.04600
Cu422      Cu  0.24481721  0.22490818  0.22167848     1.04300
C423        C  0.23747364  0.18233515  0.17335081     0.95200
C424        C  0.28538949  0.26741526  0.23314398     0.94400
C425        C  0.28579426  0.18301288  0.23352445     0.86500
C426        C  0.23708930  0.26694320  0.17294528     0.92800
O427        O  0.79643206  0.19354015  0.18857521    -0.70900
O428        O  0.75740873  0.25713244  0.23293694    -0.71900
O429        O  0.75730743  0.19355015  0.23289870    -0.60500
O430        O  0.79656466  0.25693879  0.18862865    -0.69000
O431        O  0.76706336  0.25711079  0.15236723    -0.68500
O432        O  0.72775688  0.19363300  0.19669527    -0.59800
O433        O  0.72786910  0.25721246  0.19672345    -0.72300
O434        O  0.76692158  0.19357660  0.15232493    -0.71100
Cu435      Cu  0.77796480  0.22528953  0.21203403     1.04600
Cu436      Cu  0.74633201  0.22538945  0.17326132     1.04300
C437        C  0.78778133  0.18356967  0.16360947     0.95200
C438        C  0.73659768  0.26724747  0.22163331     0.94400
C439        C  0.73647313  0.18352524  0.22158134     0.86500
C440        C  0.78796820  0.26697582  0.16367024     0.92800
C441        C  0.21369798  0.31226643  0.14661539    -0.11300
C442        C  0.22453971  0.29115196  0.15770466    -0.12800
C443        C  0.00439439  0.41211561  0.11389678    -0.11300
C444        C  0.02749415  0.41357369  0.11515185    -0.12800
C445        C  0.81485099  0.30884413  0.13620756    -0.11300
C446        C  0.80211891  0.28976812  0.14820653    -0.15200
C447        C  0.18044856  0.48013315  0.94072323    -0.11300
C448        C  0.17999003  0.47245805  0.96674768    -0.12800
C449        C  0.22195628  0.63718636  0.76036533    -0.11300
C450        C  0.23303723  0.65829896  0.74963862    -0.12800
C451        C  0.85752621  0.47976642  0.93195428    -0.11300
C452        C  0.85702098  0.46981039  0.95715915    -0.12800
C453        C  0.01128421  0.53971769  0.78395180    -0.11300
C454        C  0.03438357  0.53793080  0.78352527    -0.12800
C455        C  0.82212249  0.64031917  0.75012981    -0.11300
C456        C  0.80999541  0.65974495  0.73781737    -0.12800
C457        C  0.21422870  0.13674024  0.14732901    -0.11300
C458        C  0.22507958  0.15790540  0.15830229    -0.12800
C459        C  0.02712365  0.03742367  0.11499493    -0.11300
C460        C  0.00401564  0.03875150  0.11380681    -0.12800
C461        C  0.80181236  0.16069468  0.14810359    -0.11300
C462        C  0.81444423  0.14156458  0.13603604    -0.12800
C463        C  0.17986979  0.97094104  0.94018044    -0.11300
C464        C  0.17937674  0.97852665  0.96622752    -0.12800
C465        C  0.22188357  0.81227406  0.76160573    -0.11300
C466        C  0.23302619  0.79124625  0.75079042    -0.12800
C467        C  0.85769649  0.97148824  0.93109018    -0.11300
C468        C  0.85720163  0.98127343  0.95637111    -0.12800
C469        C  0.01100175  0.91060148  0.78322380    -0.11300
C470        C  0.03411948  0.91209840  0.78297799    -0.12800
C471        C  0.82222497  0.80912057  0.75085602    -0.11300
C472        C  0.81014634  0.78968286  0.73848989    -0.12800
C473        C  0.71892989  0.64181150  0.63551643    -0.11300
C474        C  0.73158895  0.66080579  0.64776343    -0.12800
C475        C  0.50468463  0.54245548  0.61271978    -0.11300
C476        C  0.52777763  0.54387749  0.61127958    -0.12800
C477        C  0.31667145  0.63820937  0.64693422    -0.11300
C478        C  0.30578332  0.65910519  0.65837043    -0.12800
C479        C  0.67502279  0.47025657  0.43134595    -0.11300
C480        C  0.67554511  0.48068399  0.45636487    -0.12800
C481        C  0.71069579  0.30990596  0.24925497    -0.11300
C482        C  0.72281412  0.29041585  0.23703172    -0.12800
C483        C  0.35173836  0.46879729  0.44146887    -0.11300
C484        C  0.35215436  0.47715642  0.46729405    -0.12800
C485        C  0.52120968  0.40795909  0.28436015    -0.11300
C486        C  0.49807896  0.40905537  0.28443531    -0.12800
C487        C  0.30913817  0.31240182  0.25959467    -0.11300
C488        C  0.29794673  0.29159481  0.24840523    -0.12800
C489        C  0.30984892  0.13836907  0.26018402    -0.11300
C490        C  0.29854892  0.15907377  0.24894919    -0.12800
C491        C  0.49860647  0.04088694  0.28449004    -0.11300
C492        C  0.52174118  0.04189045  0.28432100    -0.12800
C493        C  0.71068213  0.14073047  0.24909942    -0.11300
C494        C  0.72269145  0.16032825  0.23691689    -0.12800
C495        C  0.67572435  0.97966018  0.43088115    -0.11300
C496        C  0.67621247  0.96911150  0.45584998    -0.12800
C497        C  0.71936293  0.80898662  0.63620914    -0.11300
C498        C  0.73189570  0.78986989  0.64843105    -0.12800
C499        C  0.35211564  0.97122661  0.46617528    -0.11300
C500        C  0.35168980  0.97975050  0.44040909    -0.12800
C501        C  0.50505281  0.90710788  0.61186678    -0.11300
C502        C  0.52815122  0.90581885  0.61049981    -0.12800
C503        C  0.31665899  0.81302179  0.64836327    -0.11300
C504        C  0.30577347  0.79203698  0.65962260    -0.12800
loop_ 
_geom_bond_atom_site_label_1 
_geom_bond_atom_site_label_2 
_geom_bond_distance 
_geom_bond_site_symmetry_2 
_ccdc_geom_bond_type 
N1            N2   1.323       .  A
N1            C5   1.348       .  A
N1           Cu9   2.079       .  S
N2            C3   1.342       .  A
N2           Cu8   2.066       .  S
C3            C4   1.377       .  A
C3            H6   1.082       .  S
C4            C5   1.382       .  A
C4          C499   1.436       .  S
C5            H7   1.082       .  S
Cu8          N11   2.065       .  S
Cu9          N19   2.080       .  S
Cu10         N12   2.067       .  S
Cu10         N18   2.068       .  S
N11          N12   1.321       .  A
N11          C15   1.343       .  A
N12          C13   1.347       .  A
C13          C14   1.380       .  A
C13          H16   1.082       .  S
C14          C15   1.378       .  A
C14         C501   1.435       .  S
C15          H17   1.082       .  S
N18          N19   1.324       .  A
N18          C22   1.343       .  A
N19          C20   1.347       .  A
C20          C21   1.381       .  A
C20          H23   1.082       .  S
C21          C22   1.376       .  A
C21         C503   1.435       .  S
C22          H24   1.082       .  S
N25          N26   1.322       .  A
N25          C29   1.348       .  A
N25         Cu33   2.076       .  S
N26          C27   1.342       .  A
N26         Cu32   2.063       .  S
C27          C28   1.377       .  A
C27          H30   1.082       .  S
C28          C29   1.382       .  A
C28         C496   1.435       .  S
C29          H31   1.082       .  S
Cu32         N35   2.063       .  S
Cu33         N43   2.077       .  S
Cu34         N36   2.071       .  S
Cu34         N42   2.072       .  S
N35          N36   1.321       .  A
N35          C39   1.342       .  A
N36          C37   1.347       .  A
C37          C38   1.381       .  A
C37          H40   1.082       .  S
C38          C39   1.377       .  A
C38         C502   1.435       .  S
C39          H41   1.082       .  S
N42          N43   1.324       .  A
N42          C46   1.344       .  A
N43          C44   1.346       .  A
C44          C45   1.379       .  A
C44          H47   1.082       .  S
C45          C46   1.377       .  A
C45         C497   1.435       .  S
C46          H48   1.082       .  S
N49          N50   1.323       .  A
N49          C53   1.348       .  A
N49         Cu57   2.076       .  S
N50          C51   1.342   1_545  A
N50         Cu56   2.063       .  S
C51          C52   1.377       .  A
C51          H54   1.082       .  S
C52          C53   1.381   1_565  A
C52         C495   1.435       .  S
C53          H55   1.082       .  S
Cu56         N59   2.063       .  S
Cu57         N67   2.077       .  S
Cu58         N60   2.070       .  S
Cu58         N66   2.071       .  S
N59          N60   1.321       .  A
N59          C63   1.342       .  A
N60          C61   1.347       .  A
C61          C62   1.381       .  A
C61          H64   1.082       .  S
C62          C63   1.377       .  A
C62         C492   1.434       .  S
C63          H65   1.082       .  S
N66          N67   1.324       .  A
N66          C70   1.344       .  A
N67          C68   1.346       .  A
C68          C69   1.380       .  A
C68          H71   1.082       .  S
C69          C70   1.377       .  A
C69         C493   1.435       .  S
C70          H72   1.082       .  S
N73          N74   1.323       .  A
N73          C77   1.348       .  A
N73         Cu81   2.079       .  S
N74          C75   1.342   1_545  A
N74         Cu80   2.067       .  S
C75          C76   1.377       .  A
C75          H78   1.082       .  S
C76          C77   1.382   1_565  A
C76         C500   1.436       .  S
C77          H79   1.082       .  S
Cu80         N83   2.066       .  S
Cu81         N91   2.079       .  S
Cu82         N84   2.067       .  S
Cu82         N90   2.068       .  S
N83          N84   1.321       .  A
N83          C87   1.343       .  A
N84          C85   1.346       .  A
C85          C86   1.380       .  A
C85          H88   1.082       .  S
C86          C87   1.378       .  A
C86         C491   1.435       .  S
C87          H89   1.082       .  S
N90          N91   1.324       .  A
N90          C94   1.343       .  A
N91          C92   1.347       .  A
C92          C93   1.381       .  A
C92          H95   1.082       .  S
C93          C94   1.376       .  A
C93         C489   1.436       .  S
C94          H96   1.082       .  S
N97          N98   1.323       .  A
N97         C101   1.348       .  A
N97        Cu105   2.079       .  S
N98          C99   1.342       .  A
N98        Cu104   2.066       .  S
C99         C100   1.377       .  A
C99         H102   1.082       .  S
C100        C101   1.382       .  A
C100        C483   1.436       .  S
C101        H103   1.082       .  S
Cu104       N107   2.066       .  S
Cu105       N115   2.080       .  S
Cu106       N108   2.067       .  S
Cu106       N114   2.068       .  S
N107        N108   1.321       .  A
N107        C111   1.343       .  A
N108        C109   1.346       .  A
C109        C110   1.380       .  A
C109        H112   1.082       .  S
C110        C111   1.378       .  A
C110        C486   1.434       .  S
C111        H113   1.082       .  S
N114        N115   1.324       .  A
N114        C118   1.343       .  A
N115        C116   1.347       .  A
C116        C117   1.381       .  A
C116        H119   1.082       .  S
C117        C118   1.376       .  A
C117        C487   1.435       .  S
C118        H120   1.082       .  S
N121        N122   1.322       .  A
N121        C125   1.348       .  A
N121       Cu129   2.076       .  S
N122        C123   1.342       .  A
N122       Cu128   2.063       .  S
C123        C124   1.377       .  A
C123        H126   1.082       .  S
C124        C125   1.381       .  A
C124        C479   1.435       .  S
C125        H127   1.082       .  S
Cu128       N131   2.063       .  S
Cu129       N139   2.077       .  S
Cu130       N132   2.071       .  S
Cu130       N138   2.072       .  S
N131        N132   1.322       .  A
N131        C135   1.342       .  A
N132        C133   1.347       .  A
C133        C134   1.381       .  A
C133        H136   1.082       .  S
C134        C135   1.377       .  A
C134        C485   1.434       .  S
C135        H137   1.082       .  S
N138        N139   1.324       .  A
N138        C142   1.344       .  A
N139        C140   1.346       .  A
C140        C141   1.380       .  A
C140        H143   1.082       .  S
C141        C142   1.377       .  A
C141        C481   1.435       .  S
C142        H144   1.082       .  S
N145        N146   1.323       .  A
N145        C149   1.348       .  A
N145       Cu153   2.079       .  S
N146        C147   1.342       .  A
N146       Cu152   2.067       .  S
C147        C148   1.377       .  A
C147        H150   1.082       .  S
C148        C149   1.382       .  A
C148        C484   1.436       .  S
C149        H151   1.082       .  S
Cu152       N155   2.066       .  S
Cu153       N163   2.080       .  S
Cu154       N156   2.067       .  S
Cu154       N162   2.068       .  S
N155        N156   1.321       .  A
N155        C159   1.343       .  A
N156        C157   1.347       .  A
C157        C158   1.380       .  A
C157        H160   1.082       .  S
C158        C159   1.378       .  A
C158        C475   1.435       .  S
C159        H161   1.082       .  S
N162        N163   1.324       .  A
N162        C166   1.343       .  A
N163        C164   1.347       .  A
C164        C165   1.381       .  A
C164        H167   1.082       .  S
C165        C166   1.376       .  A
C165        C477   1.435       .  S
C166        H168   1.082       .  S
N169        N170   1.322       .  A
N169        C173   1.348       .  A
N169       Cu177   2.075       .  S
N170        C171   1.342       .  A
N170       Cu176   2.064       .  S
C171        C172   1.377       .  A
C171        H174   1.082       .  S
C172        C173   1.381       .  A
C172        C480   1.435       .  S
C173        H175   1.082       .  S
Cu176       N179   2.063       .  S
Cu177       N187   2.076       .  S
Cu178       N180   2.072       .  S
Cu178       N186   2.073       .  S
N179        N180   1.322       .  A
N179        C183   1.343       .  A
N180        C181   1.347       .  A
C181        C182   1.381       .  A
C181        H184   1.082       .  S
C182        C183   1.377       .  A
C182        C476   1.435       .  S
C183        H185   1.082       .  S
N186        N187   1.324       .  A
N186        C190   1.344       .  A
N187        C188   1.346       .  A
C188        C189   1.379       .  A
C188        H191   1.082       .  S
C189        C190   1.377       .  A
C189        C473   1.435       .  S
C190        H192   1.082       .  S
N193        N194   1.323       .  A
N193        C197   1.348       .  A
N193       Cu201   2.076       .  S
N194        C195   1.342       .  A
N194       Cu200   2.063       .  S
C195        C196   1.377       .  A
C195        H198   1.082       .  S
C196        C197   1.381       .  A
C196        C467   1.434       .  S
C197        H199   1.082       .  S
Cu200       N203   2.063       .  S
Cu201       N211   2.077       .  S
Cu202       N204   2.072       .  S
Cu202       N210   2.072       .  S
N203        N204   1.322       .  A
N203        C207   1.343       .  A
N204        C205   1.347       .  A
C205        C206   1.381       .  A
C205        H208   1.082       .  S
C206        C207   1.377       .  A
C206        C469   1.435   1_655  S
C207        H209   1.082       .  S
N210        N211   1.324       .  A
N210        C214   1.344       .  A
N211        C212   1.346       .  A
C212        C213   1.380       .  A
C212        H215   1.082       .  S
C213        C214   1.377       .  A
C213        C471   1.436       .  S
C214        H216   1.082       .  S
N217        N218   1.323       .  A
N217        C221   1.347       .  A
N217       Cu225   2.075       .  S
N218        C219   1.343       .  A
N218       Cu224   2.067       .  S
C219        C220   1.377       .  A
C219        H222   1.082       .  S
C220        C221   1.381       .  A
C220        C463   1.435       .  S
C221        H223   1.082       .  S
Cu224       N227   2.067       .  S
Cu225       N235   2.076       .  S
Cu226       N228   2.068       .  S
Cu226       N234   2.069       .  S
N227        N228   1.322       .  A
N227        C231   1.343       .  A
N228        C229   1.346       .  A
C229        C230   1.380       .  A
C229        H232   1.082       .  S
C230        C231   1.378       .  A
C230        C470   1.435       .  S
C231        H233   1.082       .  S
N234        N235   1.324       .  A
N234        C238   1.343       .  A
N235        C236   1.347       .  A
C236        C237   1.380       .  A
C236        H239   1.082       .  S
C237        C238   1.377       .  A
C237        C465   1.435       .  S
C238        H240   1.082       .  S
N241        N242   1.322       .  A
N241        C245   1.347       .  A
N241       Cu249   2.074       .  S
N242        C243   1.342   1_545  A
N242       Cu248   2.064       .  S
C243        C244   1.377   1_554  A
C243        H246   1.082   1_554  S
C244        C245   1.381   1_566  A
C244        C468   1.435       .  S
C245        H247   1.082   1_554  S
Cu248       N251   2.064       .  S
Cu249       N259   2.074       .  S
Cu250       N252   2.072       .  S
Cu250       N258   2.073       .  S
N251        N252   1.322       .  A
N251        C255   1.343       .  A
N252        C253   1.347       .  A
C253        C254   1.381       .  A
C253        H256   1.082       .  S
C254        C255   1.377       .  A
C254        C460   1.435   1_655  S
C255        H257   1.082       .  S
N258        N259   1.324       .  A
N258        C262   1.344       .  A
N259        C260   1.346       .  A
C260        C261   1.379       .  A
C260        H263   1.082       .  S
C261        C262   1.378       .  A
C261        C462   1.435       .  S
C262        H264   1.082       .  S
N265        N266   1.323       .  A
N265        C269   1.348       .  A
N265       Cu273   2.077       .  S
N266        C267   1.342   1_545  A
N266       Cu272   2.066       .  S
C267        C268   1.377   1_554  A
C267        H270   1.082       .  S
C268        C269   1.381   1_566  A
C268        C464   1.435       .  S
C269        H271   1.082       .  S
Cu272       N275   2.066       .  S
Cu273       N283   2.077       .  S
Cu274       N276   2.069       .  S
Cu274       N282   2.070       .  S
N275        N276   1.321       .  A
N275        C279   1.343       .  A
N276        C277   1.347       .  A
C277        C278   1.380       .  A
C277        H280   1.082       .  S
C278        C279   1.378       .  A
C278        C459   1.435       .  S
C279        H281   1.082       .  S
N282        N283   1.324       .  A
N282        C286   1.343       .  A
N283        C284   1.347       .  A
C284        C285   1.380       .  A
C284        H287   1.082       .  S
C285        C286   1.377       .  A
C285        C457   1.436       .  S
C286        H288   1.082       .  S
N289        N290   1.322       .  A
N289        C293   1.348       .  A
N289       Cu297   2.076       .  S
N290        C291   1.342       .  A
N290       Cu296   2.062       .  S
C291        C292   1.376       .  A
C291        H294   1.082       .  S
C292        C293   1.381       .  A
C292        C451   1.434       .  S
C293        H295   1.082       .  S
Cu296       N299   2.062       .  S
Cu297       N307   2.077       .  S
Cu298       N300   2.072       .  S
Cu298       N306   2.073       .  S
N299        N300   1.322       .  A
N299        C303   1.342       .  A
N300        C301   1.347       .  A
C301        C302   1.381       .  A
C301        H304   1.082       .  S
C302        C303   1.377       .  A
C302        C453   1.435   1_655  S
C303        H305   1.082       .  S
N306        N307   1.324       .  A
N306        C310   1.344       .  A
N307        C308   1.346       .  A
C308        C309   1.379       .  A
C308        H311   1.082       .  S
C309        C310   1.377       .  A
C309        C455   1.435       .  S
C310        H312   1.082       .  S
N313        N314   1.323       .  A
N313        C317   1.347       .  A
N313       Cu321   2.075       .  S
N314        C315   1.343       .  A
N314       Cu320   2.067       .  S
C315        C316   1.377       .  A
C315        H318   1.082       .  S
C316        C317   1.381       .  A
C316        C447   1.435       .  S
C317        H319   1.082       .  S
Cu320       N323   2.067       .  S
Cu321       N331   2.076       .  S
Cu322       N324   2.068       .  S
Cu322       N330   2.069       .  S
N323        N324   1.322       .  A
N323        C327   1.343       .  A
N324        C325   1.346       .  A
C325        C326   1.380       .  A
C325        H328   1.082       .  S
C326        C327   1.378       .  A
C326        C454   1.435       .  S
C327        H329   1.082       .  S
N330        N331   1.324       .  A
N330        C334   1.343       .  A
N331        C332   1.346       .  A
C332        C333   1.380       .  A
C332        H335   1.082       .  S
C333        C334   1.377       .  A
C333        C449   1.435       .  S
C334        H336   1.082       .  S
N337        N338   1.322       .  A
N337        C341   1.347       .  A
N337       Cu345   2.072       .  S
N338        C339   1.342       .  A
N338       Cu344   2.064       .  S
C339        C340   1.377   1_554  A
C339        H342   1.082   1_554  S
C340        C341   1.381   1_556  A
C340        C452   1.434       .  S
C341        H343   1.082   1_554  S
Cu344       N347   2.064       .  S
Cu345       N355   2.073       .  S
Cu346       N348   2.073       .  S
Cu346       N354   2.074       .  S
N347        N348   1.322       .  A
N347        C351   1.343       .  A
N348        C349   1.347       .  A
C349        C350   1.381       .  A
C349        H352   1.082       .  S
C350        C351   1.377       .  A
C350        C443   1.435   1_655  S
C351        H353   1.082       .  S
N354        N355   1.324       .  A
N354        C358   1.344       .  A
N355        C356   1.346       .  A
C356        C357   1.379       .  A
C356        H359   1.082       .  S
C357        C358   1.378       .  A
C357        C445   1.434       .  S
C358        H360   1.082       .  S
N361        N362   1.323       .  A
N361        C365   1.348       .  A
N361       Cu369   2.077       .  S
N362        C363   1.342       .  A
N362       Cu368   2.067       .  S
C363        C364   1.377   1_554  A
C363        H366   1.082       .  S
C364        C365   1.381   1_556  A
C364        C448   1.435       .  S
C365        H367   1.082       .  S
Cu368       N371   2.066       .  S
Cu369       N379   2.078       .  S
Cu370       N372   2.068       .  S
Cu370       N378   2.069       .  S
N371        N372   1.321       .  A
N371        C375   1.343       .  A
N372        C373   1.346       .  A
C373        C374   1.380       .  A
C373        H376   1.082       .  S
C374        C375   1.379       .  A
C374        C444   1.435       .  S
C375        H377   1.082       .  S
N378        N379   1.324       .  A
N378        C382   1.343       .  A
N379        C380   1.347       .  A
C380        C381   1.381       .  A
C380        H383   1.082       .  S
C381        C382   1.377       .  A
C381        C441   1.436       .  S
C382        H384   1.082       .  S
O385       Cu393   2.008       .  S
O385        C395   1.276       .  A
O386       Cu393   2.005       .  S
O386        C396   1.276       .  A
O387       Cu393   2.005       .  S
O387        C397   1.276       .  A
O388       Cu393   2.008       .  S
O388        C398   1.276       .  A
O389       Cu394   2.008       .  S
O389        C398   1.277       .  A
O390       Cu394   2.010       .  S
O390        C397   1.276       .  A
O391       Cu394   2.009       .  S
O391        C396   1.276       .  A
O392       Cu394   2.008       .  S
O392        C395   1.276       .  A
Cu393      Cu394   2.380       .  S
C395        C504   1.433       .  S
C396        C450   1.433       .  S
C397        C466   1.433       .  S
C398        C478   1.434       .  S
O399       Cu407   2.008       .  S
O399        C409   1.276       .  A
O400       Cu407   2.009       .  S
O400        C410   1.276       .  A
O401       Cu407   2.008       .  S
O401        C411   1.276       .  A
O402       Cu407   2.008       .  S
O402        C412   1.276       .  A
O403       Cu408   2.009       .  S
O403        C412   1.276       .  A
O404       Cu408   2.006       .  S
O404        C411   1.276       .  A
O405       Cu408   2.006       .  S
O405        C410   1.276       .  A
O406       Cu408   2.008       .  S
O406        C409   1.276       .  A
Cu407      Cu408   2.381       .  S
C409        C472   1.434       .  S
C410        C474   1.433       .  S
C411        C498   1.433       .  S
C412        C456   1.434       .  S
O413       Cu421   2.009       .  S
O413        C423   1.276       .  A
O414       Cu421   2.007       .  S
O414        C424   1.276       .  A
O415       Cu421   2.007       .  S
O415        C425   1.276       .  A
O416       Cu421   2.009       .  S
O416        C426   1.276       .  A
O417       Cu422   2.008       .  S
O417        C426   1.276       .  A
O418       Cu422   2.009       .  S
O418        C425   1.276       .  A
O419       Cu422   2.009       .  S
O419        C424   1.276       .  A
O420       Cu422   2.007       .  S
O420        C423   1.276       .  A
Cu421      Cu422   2.380       .  S
C423        C458   1.434       .  S
C424        C488   1.434       .  S
C425        C490   1.434       .  S
C426        C442   1.434       .  S
O427       Cu435   2.006       .  S
O427        C437   1.276       .  A
O428       Cu435   2.008       .  S
O428        C438   1.276       .  A
O429       Cu435   2.007       .  S
O429        C439   1.276       .  A
O430       Cu435   2.005       .  S
O430        C440   1.276       .  A
O431       Cu436   2.009       .  S
O431        C440   1.276       .  A
O432       Cu436   2.008       .  S
O432        C439   1.276       .  A
O433       Cu436   2.008       .  S
O433        C438   1.276       .  A
O434       Cu436   2.009       .  S
O434        C437   1.276       .  A
Cu435      Cu436   2.381       .  S
C437        C461   1.433       .  S
C438        C482   1.434       .  S
C439        C494   1.433       .  S
C440        C446   1.433       .  S
C441        C442   1.205       .  T
C443        C444   1.205       .  T
C445        C446   1.204       .  T
C447        C448   1.205       .  T
C449        C450   1.205       .  T
C451        C452   1.204       .  T
C453        C454   1.204       .  T
C455        C456   1.205       .  T
C457        C458   1.205       .  T
C459        C460   1.205       .  T
C461        C462   1.204       .  T
C463        C464   1.205       .  T
C465        C466   1.205       .  T
C467        C468   1.204       .  T
C469        C470   1.204       .  T
C471        C472   1.205       .  T
C473        C474   1.205       .  T
C475        C476   1.205       .  T
C477        C478   1.205       .  T
C479        C480   1.204       .  T
C481        C482   1.205       .  T
C483        C484   1.205       .  T
C485        C486   1.204       .  T
C487        C488   1.205       .  T
C489        C490   1.205       .  T
C491        C492   1.204       .  T
C493        C494   1.205       .  T
C495        C496   1.204       .  T
C497        C498   1.204       .  T
C499        C500   1.205       .  T
C501        C502   1.204       .  T
C503        C504   1.205       .  T
