geometry optimzed in LAMMPS
_audit_creation_date              2020-11-30 
_audit_creation_method            'lammps2cif' 
_symmetry_space_group_name_H-M    'P1' 
_symmetry_Int_Tables_number       1 
_symmetry_cell_setting            triclinic 
loop_ 
_symmetry_equiv_pos_as_xyz 
  x,y,z 
_cell_length_a                    29.10704479 
_cell_length_b                    41.27304038178506 
_cell_length_c                    25.289204889061836 
_cell_angle_alpha                 90.02191312984642 
_cell_angle_beta                  90.09350156000225 
_cell_angle_gamma                 89.90994414318284 
loop_ 
_atom_site_label 
_atom_site_type_symbol 
_atom_site_fract_x 
_atom_site_fract_y 
_atom_site_fract_z 
_atom_site_charge 
N1          N  0.02644968  0.98169693  0.14994259    -0.34900
N2          N  0.09079375  0.93228842  0.12904003    -0.55500
N3          N  0.16251376  0.97149360  0.17802006    -0.34900
N4          N  0.09693810  0.02199811  0.19813651    -0.55500
C5          C  0.00570294  0.96343961  0.11250799     0.28600
C6          C  0.00987124  0.01210432  0.14497395     0.28600
C7          C  0.18829250  0.95045692  0.14968318     0.28600
C8          C  0.19051648  0.99560917  0.19442166     0.28600
C9          C  0.05210428  0.91479416  0.12195615     0.37300
C10         C  0.12613647  0.91128297  0.12963144     0.37300
C11         C  0.05881275  0.03898962  0.21076700     0.37300
C12         C  0.13072371  0.03224751  0.23068897     0.37300
C13         C  0.97751195  0.98281219  0.08160437    -0.20200
C14         C  0.97915874  0.01338707  0.10297767    -0.20200
C15         C  0.23356868  0.96090768  0.14920972    -0.20200
C16         C  0.23506519  0.98924705  0.17789951    -0.20200
C17         C  0.06284340  0.88207459  0.11981689    -0.21300
C18         C  0.10998036  0.87995771  0.12295046    -0.21300
C19         C  0.06827502  0.06063841  0.25107060    -0.21300
C20         C  0.11405426  0.05657236  0.26348698    -0.21300
C21         C  0.00938335  0.92929361  0.10946724    -0.16600
C22         C  0.01724516  0.03680143  0.18250625    -0.16600
C23         C  0.17701407  0.02179052  0.22699953    -0.16600
C24         C  0.17244057  0.92100478  0.12752240    -0.16600
H25         H  0.95697259  0.97558855  0.04794429     0.16300
H26         H  0.95960643  0.03391675  0.08891877     0.16300
H27         H  0.26283942  0.94885804  0.13160414     0.16300
H28         H  0.26561258  0.00334708  0.18579891     0.16300
H29         H  0.03976714  0.86187496  0.11412648     0.14600
H30         H  0.12993294  0.85789555  0.12015691     0.14600
H31         H  0.04508848  0.07815862  0.26847013     0.14600
H32         H  0.13285808  0.07059521  0.29240318     0.14600
H33         H  0.04550224  0.97295698  0.18181265     0.27800
H34         H  0.12872094  0.96808754  0.18990093     0.27800
N35         N  0.01094314  0.88655590  0.01336016    -0.34900
N36         N  0.94298464  0.89408451  0.89638983    -0.55500
N37         N  0.86353486  0.92822082  0.94165670    -0.34900
N38         N  0.89673652  0.92225747  0.04985390    -0.55500
C39         C  0.99827909  0.86595782  0.97473086     0.28600
C40         C  0.97732574  0.88532742  0.04988592     0.28600
C41         C  0.85257924  0.92849621  0.88932512     0.28600
C42         C  0.83592018  0.95025363  0.96644647     0.28600
C43         C  0.98309981  0.87916089  0.88419943     0.37300
C44         C  0.91837195  0.89628052  0.85149811     0.37300
C45         C  0.92424411  0.92060600  0.09282481     0.37300
C46         C  0.86347758  0.94368617  0.06055182     0.37300
C47         C  0.95811695  0.85006798  0.98799133    -0.20200
C48         C  0.94522382  0.86186951  0.03630936    -0.20200
C49         C  0.81756566  0.95079313  0.88104946    -0.20200
C50         C  0.80738231  0.96455815  0.92922820    -0.20200
C51         C  0.98527474  0.87274516  0.83078724    -0.21300
C52         C  0.94370697  0.88292787  0.81005068    -0.21300
C53         C  0.90659150  0.93943806  0.13319139    -0.21300
C54         C  0.86766400  0.95393635  0.11292009    -0.21300
C55         C  0.01431785  0.86877624  0.92325932    -0.16600
C56         C  0.96989277  0.90958725  0.08786861    -0.16600
C57         C  0.83517631  0.95820255  0.02156030    -0.16600
C58         C  0.87353155  0.90987948  0.84800055    -0.16600
H59         H  0.93824032  0.83395637  0.96312531     0.16300
H60         H  0.91340965  0.85641327  0.05654493     0.16300
H61         H  0.80175554  0.95725002  0.84374455     0.16300
H62         H  0.78166645  0.98305749  0.93602075     0.16300
H63         H  0.01238290  0.86023619  0.80979051     0.14600
H64         H  0.93364619  0.88047973  0.76908941     0.14600
H65         H  0.92246998  0.94462762  0.17098045     0.14600
H66         H  0.84764355  0.97231810  0.13294416     0.14600
H67         H  0.03642772  0.90426272  0.01033498     0.27800
H68         H  0.88718109  0.91280114  0.95920708     0.27800
In69       In  0.81607609  0.36743358  0.17342164     1.36900
C70         C  0.80359928  0.42073814  0.11480505     0.79300
O71         O  0.81096347  0.36811554  0.26206174    -0.59200
O72         O  0.75117607  0.37958666  0.21740122    -0.50100
C73         C  0.79339781  0.30633072  0.14830143     0.71900
O74         O  0.77199844  0.33039409  0.12981311    -0.45000
C75         C  0.90689732  0.37468046  0.17756270     0.76600
O76         O  0.81146735  0.39339340  0.09427128    -0.56800
O77         O  0.88116438  0.37928040  0.21680465    -0.46900
O78         O  0.79870880  0.42014230  0.16415176    -0.53300
C79         C  0.76944828  0.37689352  0.26257196     0.86800
O80         O  0.82586572  0.31346402  0.17892111    -0.55100
O81         O  0.88648779  0.36495506  0.13652253    -0.58400
In82       In  0.81673450  0.08543818  0.15161830     1.36900
C83         C  0.81497756  0.04191725  0.07278043     0.79300
O84         O  0.88854210  0.09867200  0.12661451    -0.59200
O85         O  0.88064602  0.06924448  0.19447845    -0.50100
C86         C  0.78790854  0.14678301  0.13936130     0.71900
O87         O  0.77201493  0.12395404  0.11176427    -0.45000
C88         C  0.77189146  0.06297411  0.23635331     0.76600
O89         O  0.83101969  0.06998096  0.06736949    -0.56800
O90         O  0.75393522  0.06304340  0.19071027    -0.46900
O91         O  0.79676579  0.03685349  0.11713917    -0.53300
C92         C  0.90788587  0.08276764  0.16274485     0.86800
O93         O  0.81607881  0.13804853  0.17414720    -0.55100
O94         O  0.81168949  0.07490672  0.23829270    -0.58400
N95         N  0.04081731  0.45815462  0.11615923    -0.34900
N96         N  0.10713260  0.50739644  0.11820375    -0.55500
N97         N  0.17151059  0.46188481  0.16523935    -0.34900
N98         N  0.10288010  0.41183034  0.16339580    -0.55500
C99         C  0.02321941  0.48076314  0.08327437     0.28600
C100        C  0.02222735  0.42944664  0.10226638     0.28600
C101        C  0.20081879  0.48348970  0.14353617     0.28600
C102        C  0.19628609  0.43537459  0.17826425     0.28600
C103        C  0.07057151  0.52671034  0.10903718     0.37300
C104        C  0.14361816  0.52669167  0.12579531     0.37300
C105        C  0.06308228  0.39522074  0.16658869     0.37300
C106        C  0.13207840  0.39841907  0.19865856     0.37300
C107        C  0.99460462  0.46610859  0.04653679    -0.20200
C108        C  0.99333757  0.43369011  0.05912093    -0.20200
C109        C  0.24497438  0.47079859  0.14386598    -0.20200
C110        C  0.24223147  0.44056286  0.16655610    -0.20200
C111        C  0.08357220  0.55893148  0.11204468    -0.21300
C112        C  0.13033186  0.55888970  0.12129586    -0.21300
C113        C  0.06717381  0.37044618  0.20324148    -0.21300
C114        C  0.11107503  0.37248783  0.22369429    -0.21300
C115        C  0.02816087  0.51454279  0.09080153    -0.16600
C116        C  0.02482220  0.40137782  0.13373156    -0.16600
C117        C  0.17847511  0.40790797  0.20416881    -0.16600
C118        C  0.18903436  0.51494297  0.12586654    -0.16600
H119        H  0.97519420  0.47778625  0.01537040     0.16300
H120        H  0.97232804  0.41559712  0.03981939     0.16300
H121        H  0.27614529  0.48245294  0.13050440     0.16300
H122        H  0.27083891  0.42431147  0.17327908     0.16300
H123        H  0.06254989  0.58012703  0.10503608     0.14600
H124        H  0.15216413  0.58005578  0.12302956     0.14600
H125        H  0.04162901  0.35251096  0.21350749     0.14600
H126        H  0.12602083  0.35629920  0.25265078     0.14600
H127        H  0.05801524  0.46290600  0.15150930     0.27800
H128        H  0.13732638  0.46590768  0.17525137     0.27800
N129        N  0.02502691  0.55855782  0.99850137    -0.34900
N130        N  0.91188203  0.52414539  0.04764863    -0.55500
N131        N  0.87195837  0.51592330  0.94173576    -0.34900
N132        N  0.94436971  0.55247258  0.88843804    -0.55500
C133        C  0.99435396  0.56074621  0.03817874     0.28600
C134        C  0.00869212  0.57759790  0.95951492     0.28600
C135        C  0.84458284  0.49586480  0.97057343     0.28600
C136        C  0.85350420  0.51838156  0.89223761     0.28600
C137        C  0.94357688  0.52587589  0.08686267     0.37300
C138        C  0.88292264  0.49992894  0.06007327     0.37300
C139        C  0.98558331  0.56335215  0.87143914     0.37300
C140        C  0.91861450  0.54634315  0.84550379     0.37300
C141        C  0.96153095  0.58416030  0.02668310    -0.20200
C142        C  0.97024689  0.59445759  0.97621979    -0.20200
C143        C  0.80866877  0.48534684  0.93894247    -0.20200
C144        C  0.81397018  0.49963330  0.89016003    -0.20200
C145        C  0.93218828  0.50481410  0.12714171    -0.21300
C146        C  0.89416818  0.48813784  0.11014705    -0.21300
C147        C  0.98698272  0.56366260  0.81695943    -0.21300
C148        C  0.94394760  0.55372417  0.80031101    -0.21300
C149        C  0.98876372  0.53650831  0.07641417    -0.16600
C150        C  0.02057161  0.57293113  0.90651514    -0.16600
C151        C  0.87266484  0.53478496  0.84728007    -0.16600
C152        C  0.85124356  0.48553364  0.02400754    -0.16600
H153        H  0.93139571  0.59018272  0.04973470     0.16300
H154        H  0.94840371  0.61000035  0.95254873     0.16300
H155        H  0.78134105  0.46890938  0.94985773     0.16300
H156        H  0.79213638  0.49530039  0.85624123     0.16300
H157        H  0.95271985  0.49896400  0.16158560     0.14600
H158        H  0.88011475  0.46751735  0.13070015     0.14600
H159        H  0.01522295  0.57124445  0.79211167     0.14600
H160        H  0.93338925  0.55159055  0.75947555     0.14600
H161        H  0.05012704  0.54059153  0.99406583     0.27800
H162        H  0.90225939  0.52637923  0.95476188     0.27800
In163      In  0.23204406  0.86237981  0.91231214     1.36900
C164        C  0.22735244  0.89643424  0.00036122     0.79300
O165        O  0.30155969  0.88397080  0.89903574    -0.59200
O166        O  0.26140050  0.87221450  0.83158706    -0.50100
C167        C  0.25884305  0.80171792  0.92354532     0.71900
O168        O  0.26749243  0.82311570  0.95751451    -0.45000
C169        C  0.14249361  0.86891763  0.88942473     0.76600
O170        O  0.22529331  0.86595240  0.99988519    -0.56800
O171        O  0.17253360  0.88777858  0.87119063    -0.46900
O172        O  0.23398585  0.90945074  0.95596439    -0.53300
C173        C  0.29851099  0.88368973  0.84942002     0.86800
O174        O  0.23695779  0.81124634  0.88337518    -0.55100
O175        O  0.15862772  0.84576448  0.91607611    -0.58400
In176      In  0.24141579  0.58362950  0.92095419     1.36900
C177        C  0.24191190  0.54310225  0.00146132     0.79300
O178        O  0.17506460  0.60452524  0.94746802    -0.59200
O179        O  0.17205936  0.56934600  0.88634879    -0.50100
C180        C  0.26940243  0.64398968  0.92972789     0.71900
O181        O  0.28341282  0.62220371  0.96073533    -0.45000
C182        C  0.29709854  0.56296807  0.84512791     0.76600
O183        O  0.25165774  0.57266857  0.00669545    -0.56800
O184        O  0.25731275  0.57366187  0.83563924    -0.46900
O185        O  0.23521076  0.53385706  0.95458267    -0.53300
C186        C  0.15029490  0.58816953  0.91674622     0.86800
O187        O  0.24277768  0.63471454  0.89351615    -0.55100
O188        O  0.30810849  0.56257839  0.89328652    -0.58400
N189        N  0.51757023  0.95356032  0.64901211    -0.34900
N190        N  0.44432871  0.99428740  0.60406874    -0.55500
N191        N  0.37708553  0.95248479  0.65779179    -0.34900
N192        N  0.45029532  0.91464816  0.70605053    -0.55500
C193        C  0.53943702  0.96885809  0.60904247     0.28600
C194        C  0.54048476  0.92548676  0.65725791     0.28600
C195        C  0.34874765  0.97407523  0.63385909     0.28600
C196        C  0.35214262  0.93645638  0.69454601     0.28600
C197        C  0.48019221  0.00122058  0.57224158     0.37300
C198        C  0.40660797  0.99681633  0.57318690     0.37300
C199        C  0.48884795  0.89912423  0.72186642     0.37300
C200        C  0.41502260  0.90181060  0.73354241     0.37300
C201        C  0.57410220  0.94931679  0.58931920    -0.20200
C202        C  0.57592051  0.92254634  0.62088711    -0.20200
C203        C  0.30509218  0.97163204  0.65486647    -0.20200
C204        C  0.30718804  0.94802062  0.69329515    -0.20200
C205        C  0.46528480  0.00576188  0.52066553    -0.21300
C206        C  0.41857473  0.00415057  0.52162677    -0.21300
C207        C  0.47834734  0.87604476  0.75951164    -0.21300
C208        C  0.43150339  0.87746800  0.76655998    -0.21300
C209        C  0.52660281  0.99904282  0.58764896    -0.16600
C210        C  0.53243827  0.90359947  0.69897529    -0.16600
C211        C  0.36830618  0.91170648  0.72915119    -0.16600
C212        C  0.36108283  0.99421130  0.59117593    -0.16600
H213        H  0.59543258  0.95346344  0.55501258     0.16300
H214        H  0.59990194  0.90283307  0.61585433     0.16300
H215        H  0.27484443  0.98522886  0.64342219     0.16300
H216        H  0.27861082  0.94028868  0.71749927     0.16300
H217        H  0.48578455  0.00832140  0.48535066     0.14600
H218        H  0.39605955  0.00662503  0.48775821     0.14600
H219        H  0.50168091  0.85916414  0.77836031     0.14600
H220        H  0.41198530  0.86191371  0.79254376     0.14600
H221        H  0.49167978  0.96336274  0.67256322     0.27800
H222        H  0.41057661  0.94757292  0.64650668     0.27800
N223        N  0.56219955  0.04503897  0.47604687    -0.34900
N224        N  0.63869966  0.01428403  0.52795000    -0.55500
N225        N  0.68680705  0.01391690  0.42842435    -0.34900
N226        N  0.60875826  0.04683540  0.37731375    -0.55500
C227        C  0.54956447  0.04544451  0.52719344     0.28600
C228        C  0.53478858  0.06613612  0.45042978     0.28600
C229        C  0.71159828  0.99124884  0.45558326     0.28600
C230        C  0.69995293  0.01278313  0.37693027     0.28600
C231        C  0.60991086  0.01607440  0.56944821     0.37300
C232        C  0.67721282  0.99978069  0.54517075     0.37300
C233        C  0.56947193  0.06159412  0.36150875     0.37300
C234        C  0.63725530  0.04637406  0.33535531     0.37300
C235        C  0.51485232  0.06786856  0.53513697    -0.20200
C236        C  0.50515570  0.08086891  0.48622844    -0.20200
C237        C  0.74130544  0.97595606  0.42079468    -0.20200
C238        C  0.73440012  0.98974761  0.37154034    -0.20200
C239        C  0.63155994  0.00541637  0.61496628    -0.21300
C240        C  0.67438421  0.99487276  0.59954244    -0.21300
C241        C  0.57278524  0.07068078  0.30910561    -0.21300
C242        C  0.61599023  0.06156805  0.29268898    -0.21300
C243        C  0.56247864  0.02109821  0.56274450    -0.16600
C244        C  0.53233530  0.06932194  0.39509489    -0.16600
C245        C  0.68135336  0.03154281  0.33434830    -0.16600
C246        C  0.70910099  0.98460539  0.51108307    -0.16600
H247        H  0.49626422  0.07238545  0.57144474     0.16300
H248        H  0.47795103  0.09798736  0.47761809     0.16300
H249        H  0.76573263  0.95697441  0.43000162     0.16300
H250        H  0.75194328  0.98295119  0.33549198     0.16300
H251        H  0.61659886  0.00283642  0.65389448     0.14600
H252        H  0.69883191  0.98241674  0.62464535     0.14600
H253        H  0.54750634  0.08367184  0.28587473     0.14600
H254        H  0.62979591  0.06558974  0.25356193     0.14600
H255        H  0.58186909  0.02682467  0.45878765     0.27800
H256        H  0.66462834  0.03102709  0.44423298     0.27800
In257      In  0.30962432  0.36689329  0.39476328     1.36900
C258        C  0.30349298  0.40506939  0.47984523     0.79300
O259        O  0.38301538  0.35228416  0.40788263    -0.59200
O260        O  0.37034382  0.39167150  0.35606291    -0.50100
C261        C  0.29561606  0.30367476  0.39604180     0.71900
O262        O  0.28023635  0.32205201  0.43174378    -0.45000
C263        C  0.24256903  0.38154353  0.32755556     0.76600
O264        O  0.30644755  0.37463859  0.48266604    -0.56800
O265        O  0.28387399  0.37860170  0.31315572    -0.46900
O266        O  0.30198888  0.41605299  0.43333326    -0.53300
C267        C  0.39979035  0.37375351  0.37830508     0.86800
O268        O  0.31760883  0.31754711  0.35973904    -0.55100
O269        O  0.23580664  0.37740831  0.37619394    -0.58400
In270      In  0.31805705  0.08013838  0.39883864     1.36900
C271        C  0.32220907  0.05699966  0.49697306     0.79300
O272        O  0.24776243  0.05887471  0.38950992    -0.59200
O273        O  0.28840284  0.06410083  0.32056710    -0.50100
C274        C  0.29764974  0.14262584  0.39536927     0.71900
O275        O  0.28685695  0.12498182  0.43398127    -0.45000
C276        C  0.40522991  0.06671872  0.37302684     0.76600
O277        O  0.33441926  0.08536022  0.48517170    -0.56800
O278        O  0.37413113  0.04553977  0.37334291    -0.46900
O279        O  0.30631110  0.04076288  0.45889877    -0.53300
C280        C  0.25094747  0.05479038  0.34039253     0.86800
O281        O  0.31706495  0.12820380  0.35764190    -0.55100
O282        O  0.39136864  0.09489057  0.38326751    -0.58400
N283        N  0.49889066  0.50601755  0.63197459    -0.34900
N284        N  0.42465286  0.46761678  0.58411537    -0.55500
N285        N  0.36126365  0.51325576  0.63009392    -0.34900
N286        N  0.43546087  0.54774928  0.68273933    -0.55500
C287        C  0.51867053  0.48799225  0.59414248     0.28600
C288        C  0.52250364  0.53411986  0.63410079     0.28600
C289        C  0.33186781  0.49501977  0.60092417     0.28600
C290        C  0.33680596  0.52790159  0.66892038     0.28600
C291        C  0.46151716  0.45343640  0.56168472     0.37300
C292        C  0.39067916  0.46625431  0.54802339     0.37300
C293        C  0.47509351  0.56066307  0.70093270     0.37300
C294        C  0.40175233  0.55668382  0.71603391     0.37300
C295        C  0.55315079  0.50518080  0.56924402    -0.20200
C296        C  0.55642017  0.53417198  0.59540023    -0.20200
C297        C  0.28765960  0.49916082  0.61959280    -0.20200
C298        C  0.29074694  0.51952953  0.66281837    -0.20200
C299        C  0.45151761  0.44448250  0.51007214    -0.21300
C300        C  0.40631030  0.45198704  0.50177871    -0.21300
C301        C  0.46680642  0.57894908  0.74560597    -0.21300
C302        C  0.42025798  0.57660030  0.75515939    -0.21300
C303        C  0.50602662  0.45612972  0.58253840    -0.16600
C304        C  0.51761901  0.55692845  0.67511893    -0.16600
C305        C  0.35476418  0.54737750  0.71093645    -0.16600
C306        C  0.34466338  0.47459641  0.55835042    -0.16600
H307        H  0.57440779  0.49726838  0.53659747     0.16300
H308        H  0.58132007  0.55269866  0.58645742     0.16300
H309        H  0.25665730  0.48794800  0.60464878     0.16300
H310        H  0.26213371  0.52689910  0.68729953     0.16300
H311        H  0.47488611  0.43600650  0.47995441     0.14600
H312        H  0.38746866  0.44827629  0.46534786     0.14600
H313        H  0.49146050  0.59272753  0.76843116     0.14600
H314        H  0.40235292  0.58868815  0.78698726     0.14600
H315        H  0.47471638  0.49747182  0.65904825     0.27800
H316        H  0.39597083  0.51602722  0.62242192     0.27800
N317        N  0.54969355  0.39873559  0.49390474    -0.34900
N318        N  0.62289750  0.43279602  0.54827220    -0.55500
N319        N  0.67856313  0.42456324  0.45508845    -0.34900
N320        N  0.60284814  0.38874091  0.40217197    -0.55500
C321        C  0.53270393  0.40338722  0.54258531     0.28600
C322        C  0.52386874  0.37574413  0.47069758     0.28600
C323        C  0.70582927  0.44534727  0.48295273     0.28600
C324        C  0.69683847  0.42086205  0.40610873     0.28600
C325        C  0.58908214  0.43709356  0.58382363     0.37300
C326        C  0.65973325  0.44880583  0.56666755     0.37300
C327        C  0.56243516  0.37685761  0.38384252     0.37300
C328        C  0.63145017  0.39126794  0.36056029     0.37300
C329        C  0.49646038  0.38255914  0.55191660    -0.20200
C330        C  0.49089721  0.36479341  0.50624935    -0.20200
C331        C  0.74265685  0.45420654  0.45156492    -0.20200
C332        C  0.73716080  0.43879721  0.40348980    -0.20200
C333        C  0.60518755  0.45380550  0.62744030    -0.21300
C334        C  0.65014489  0.46129274  0.61664463    -0.21300
C335        C  0.56530329  0.37128099  0.33013629    -0.21300
C336        C  0.60909555  0.38004987  0.31537307    -0.21300
C337        C  0.54275559  0.43115293  0.57166368    -0.16600
C338        C  0.52413118  0.36949089  0.41600959    -0.16600
C339        C  0.67717627  0.40351391  0.36241762    -0.16600
C340        C  0.69848266  0.45687511  0.53566908    -0.16600
H341        H  0.47422989  0.38220408  0.58618731     0.16300
H342        H  0.46347324  0.34771196  0.49880193     0.16300
H343        H  0.77039173  0.47045680  0.46193749     0.16300
H344        H  0.75964852  0.44153001  0.36976995     0.16300
H345        H  0.58567736  0.46171105  0.66150629     0.14600
H346        H  0.67190166  0.47634535  0.64114201     0.14600
H347        H  0.53894100  0.36147286  0.30452370     0.14600
H348        H  0.62248128  0.37854578  0.27558580     0.14600
H349        H  0.57050324  0.41546075  0.47481463     0.27800
H350        H  0.64997993  0.41232306  0.46892546     0.27800
In351      In  0.72888007  0.58387636  0.66826735     1.36900
C352        C  0.73070475  0.53819199  0.59178141     0.79300
O353        O  0.79423988  0.56665962  0.70788450    -0.59200
O354        O  0.73318255  0.56866840  0.75363713    -0.50100
C355        C  0.76172422  0.64437820  0.66051372     0.71900
O356        O  0.77808131  0.62118769  0.63401481    -0.45000
C357        C  0.63737142  0.59005563  0.67052562     0.76600
O358        O  0.72800050  0.56806268  0.58217092    -0.56800
O359        O  0.65951155  0.57639832  0.70728854    -0.46900
O360        O  0.73548558  0.53173188  0.64015070    -0.53300
C361        C  0.77559050  0.56228682  0.75241882     0.86800
O362        O  0.72994930  0.63654769  0.69155774    -0.55100
O363        O  0.66203335  0.60110737  0.63396622    -0.58400
In364      In  0.73260357  0.86354524  0.66491788     1.36900
C365        C  0.72751933  0.90401047  0.58061527     0.79300
O366        O  0.66306998  0.83966099  0.66050087    -0.59200
O367        O  0.66937850  0.88382214  0.70297362    -0.50100
C368        C  0.76617896  0.80329074  0.65493832     0.71900
O369        O  0.77727751  0.82566220  0.62349935    -0.45000
C370        C  0.77888728  0.88534924  0.74892985     0.76600
O371        O  0.70712929  0.87720713  0.58311754    -0.56800
O372        O  0.73688036  0.87828899  0.75004413    -0.46900
O373        O  0.75310888  0.90953888  0.61984571    -0.53300
C374        C  0.64328906  0.86138620  0.68713769     0.86800
O375        O  0.73947818  0.81189696  0.69119697    -0.55100
O376        O  0.79756477  0.88202814  0.70418095    -0.58400
C377        C  0.78055403  0.76996244  0.64960252    -0.16800
C378        C  0.78536472  0.74081646  0.64914178     0.07200
C379        C  0.78360123  0.70644140  0.65149178     0.09100
C380        C  0.77658093  0.67759690  0.65494457    -0.17700
C381        C  0.72368292  0.51308517  0.55039360    -0.14800
C382        C  0.73003601  0.48126825  0.55995645    -0.29900
H383        H  0.70517024  0.52038490  0.51499264     0.14300
H384        H  0.74720066  0.47418878  0.59636585     0.14800
C385        C  0.56031021  0.57160276  0.69686602    -0.14800
C386        C  0.58672410  0.59087466  0.66696130    -0.29900
H387        H  0.57484006  0.56016998  0.73178484     0.14300
H388        H  0.57186922  0.60195242  0.63187532     0.14800
C389        C  0.44983436  0.37908363  0.37364342    -0.14800
C390        C  0.48035793  0.35758988  0.39298451    -0.29900
H391        H  0.46137679  0.40308674  0.36212233     0.14300
H392        H  0.46830287  0.33398976  0.40593692     0.14800
C393        C  0.30667638  0.42575700  0.52742037    -0.14800
C394        C  0.30980934  0.45828075  0.52453943    -0.29900
H395        H  0.31787685  0.41377740  0.56350374     0.14300
H396        H  0.29999625  0.47058379  0.48827173     0.14800
C397        C  0.28955541  0.26926793  0.39690742    -0.16800
C398        C  0.28720561  0.24015833  0.39666068     0.07200
C399        C  0.28738959  0.20602684  0.39586111     0.09100
C400        C  0.29023572  0.17693149  0.39526399    -0.17700
C401        C  0.48776753  0.08044353  0.37311422    -0.14800
C402        C  0.45420074  0.05843464  0.36621326    -0.29900
H403        H  0.47914372  0.10594533  0.37706340     0.14300
H404        H  0.46306358  0.03284085  0.36512627     0.14800
C405        C  0.73637880  0.95761259  0.53535419    -0.14800
C406        C  0.71810103  0.92759725  0.53735871    -0.29900
H407        H  0.76324644  0.96409237  0.56325651     0.14300
H408        H  0.68956666  0.92194750  0.51116428     0.14800
C409        C  0.57341343  0.88684122  0.72064356    -0.14800
C410        C  0.59295333  0.86232468  0.69405679    -0.29900
H411        H  0.59462746  0.90141016  0.74683624     0.14300
H412        H  0.57228767  0.84809169  0.66682641     0.14800
C413        C  0.32545804  0.01141930  0.55963473    -0.14800
C414        C  0.33107040  0.04320606  0.54970063    -0.29900
H415        H  0.30361723  0.99679297  0.53427014     0.14300
H416        H  0.35312804  0.05732700  0.57566736     0.14800
C417        C  0.32882308  0.55184581  0.80376129    -0.14800
C418        C  0.32178785  0.55822602  0.75230359    -0.29900
H419        H  0.35958555  0.53892488  0.81607658     0.14300
H420        H  0.29051179  0.57049328  0.73995680     0.14800
C421        C  0.33548518  0.89647833  0.81578339    -0.14800
C422        C  0.33322086  0.89560134  0.76283981    -0.29900
H423        H  0.36478962  0.90774973  0.83504237     0.14300
H424        H  0.30294852  0.88561417  0.74366458     0.14800
C425        C  0.28084952  0.67737302  0.93597994    -0.16800
C426        C  0.28369303  0.70636847  0.93779254     0.07200
C427        C  0.27993779  0.74026061  0.93550530     0.09100
C428        C  0.27206809  0.76867804  0.93066563    -0.17700
C429        C  0.84402545  0.53957657  0.79840337    -0.14800
C430        C  0.80109125  0.55183173  0.80025311    -0.29900
H431        H  0.85984004  0.53636568  0.75995519     0.14300
H432        H  0.78471199  0.55579953  0.83826813     0.14800
C433        C  0.07012359  0.57267376  0.89177843    -0.14800
C434        C  0.10002419  0.59085798  0.91951482    -0.29900
H435        H  0.08216371  0.55672825  0.86054237     0.14300
H436        H  0.08700670  0.60752922  0.94923540     0.14800
C437        C  0.21037823  0.38964982  0.23874453    -0.14800
C438        C  0.20508620  0.39041781  0.29132251    -0.29900
H439        H  0.24236385  0.38073404  0.22208497     0.14300
H440        H  0.17359676  0.40003046  0.30827444     0.14800
C441        C  0.22236293  0.53348490  0.09393987    -0.14800
C442        C  0.23385099  0.52151492  0.04634914    -0.29900
H443        H  0.22613435  0.55924150  0.10159862     0.14300
H444        H  0.22637565  0.49632319  0.03713222     0.14800
C445        C  0.74876786  0.05108253  0.28478085    -0.14800
C446        C  0.70836460  0.03538049  0.28447824    -0.29900
H447        H  0.76448564  0.05715063  0.32249680     0.14300
H448        H  0.69194176  0.02995861  0.24689958     0.14800
C449        C  0.95618870  0.38252320  0.17934355    -0.14800
C450        C  0.98302052  0.38098448  0.13632457    -0.29900
H451        H  0.96909933  0.39415583  0.21494953     0.14300
H452        H  0.96925709  0.37114038  0.09975423     0.14800
C453        C  0.80493921  0.45176676  0.08569290    -0.14800
C454        C  0.82856345  0.45460634  0.04034163    -0.29900
H455        H  0.79618606  0.47358822  0.10757036     0.14300
H456        H  0.83775903  0.43294413  0.01831702     0.14800
C457        C  0.70467551  0.39977518  0.31307399    -0.14800
C458        C  0.74473527  0.38356827  0.31236050    -0.29900
H459        H  0.68986290  0.40810825  0.27603459     0.14300
H460        H  0.75975947  0.37508393  0.34920617     0.14800
C461        C  0.77687583  0.18055975  0.13134181    -0.16800
C462        C  0.77403285  0.20980215  0.12879234     0.07200
C463        C  0.77629390  0.24418806  0.13063065     0.09100
C464        C  0.78203466  0.27305144  0.13629524    -0.17700
C465        C  0.84770375  0.90497535  0.79735300    -0.14800
C466        C  0.80355399  0.89539217  0.79725728    -0.29900
H467        H  0.86592739  0.90619365  0.76002431     0.14300
H468        H  0.78522595  0.89322181  0.83448644     0.14800
C469        C  0.06256457  0.85864089  0.91411068    -0.14800
C470        C  0.09246787  0.87478683  0.88349270    -0.29900
H471        H  0.07582395  0.84006700  0.94058558     0.11100
H472        H  0.08082825  0.89503088  0.85952468     0.14800
C473        C  0.80687119  0.98592739  0.04043384    -0.14800
C474        C  0.82179377  0.01634316  0.03260772    -0.29900
H475        H  0.78327928  0.98123413  0.07279675     0.14300
H476        H  0.84699968  0.02096121  0.00185787     0.14800
C477        C  0.21350351  0.03918478  0.25668094    -0.14800
C478        C  0.21366457  0.03980324  0.30966795    -0.29900
H479        H  0.24215830  0.04942849  0.23492222     0.14300
H480        H  0.18558395  0.02869185  0.33132469     0.14800
C481        C  0.97704107  0.05672993  0.19787898    -0.14800
C482        C  0.95800593  0.07778608  0.16395728    -0.29900
H483        H  0.95738785  0.04819564  0.23158561     0.14300
H484        H  0.97769650  0.08603378  0.13006956     0.14800
C485        C  0.20284568  0.90193082  0.09241421    -0.14800
C486        C  0.21835763  0.91572127  0.04781453    -0.29900
H487        H  0.20264785  0.87570139  0.09574379     0.14300
H488        H  0.21606593  0.94182564  0.04276170     0.14800
loop_ 
_geom_bond_atom_site_label_1 
_geom_bond_atom_site_label_2 
_geom_bond_distance 
_geom_bond_site_symmetry_2 
_ccdc_geom_bond_type 
N1            C6   1.350   1_565  A
N1            C5   1.352       .  A
N1           H33   1.042       .  S
N2            C9   1.350       .  A
N2           C10   1.344       .  A
N3            C8   1.352       .  A
N3            C7   1.353       .  A
N3           H34   1.039       .  S
N4           C11   1.350       .  A
N4           C12   1.350       .  A
C5           C13   1.386   1_455  A
C5           C21   1.415       .  A
C6           C22   1.409       .  A
C6           C14   1.388   1_455  A
C7           C15   1.387       .  A
C7           C24   1.416       .  A
C8           C23   1.414   1_565  A
C8           C16   1.388       .  A
C9           C21   1.414       .  A
C9           C17   1.387       .  A
C10          C24   1.408       .  A
C10          C18   1.387       .  A
C11          C19   1.383       .  A
C11          C22   1.407       .  A
C12          C20   1.389       .  A
C12          C23   1.417       .  A
C13          C14   1.373   1_565  A
C13          H25   1.081       .  S
C14          H26   1.080       .  S
C15          C16   1.377       .  A
C15          H27   1.082       .  S
C16          H28   1.082   1_565  S
C17          C18   1.377       .  A
C17          H29   1.081       .  S
C18          H30   1.082       .  S
C19          C20   1.379       .  A
C19          H31   1.082       .  S
C20          H32   1.081       .  S
C21          C56   1.511   1_455  S
C22         C481   1.482   1_455  S
C23         C477   1.485       .  S
C24         C485   1.480       .  S
N35          C40   1.348   1_455  A
N35          C39   1.346   1_454  A
N35          H67   1.045       .  S
N36          C43   1.355       .  A
N36          C44   1.344       .  A
N37          C42   1.366       .  A
N37          C41   1.361       .  A
N37          H68   1.036       .  S
N38          C45   1.350       .  A
N38          C46   1.338       .  A
C39          C47   1.383       .  A
C39          C55   1.389   1_655  A
C40          C56   1.404       .  A
C40          C48   1.389       .  A
C41          C49   1.388       .  A
C41          C58   1.433       .  A
C42          C57   1.432   1_556  A
C42          C50   1.386       .  A
C43          C55   1.408   1_655  A
C43          C51   1.378       .  A
C44          C58   1.423       .  A
C44          C52   1.395       .  A
C45          C53   1.382       .  A
C45          C56   1.409       .  A
C46          C54   1.395       .  A
C46          C57   1.416       .  A
C47          C48   1.368   1_556  A
C47          H59   1.083       .  S
C48          H60   1.083       .  S
C49          C50   1.377       .  A
C49          H61   1.082       .  S
C50          H62   1.082       .  S
C51          C52   1.383       .  A
C51          H63   1.082   1_655  S
C52          H64   1.081       .  S
C53          C54   1.379       .  A
C53          H65   1.082       .  S
C54          H66   1.082       .  S
C55         C469   1.483       .  S
C57         C473   1.488       .  S
C58         C465   1.498       .  S
In69         O71   2.247       .  S
In69         O72   2.250       .  S
In69         O80   2.250       .  S
In69         O74   2.280       .  S
In69         O76   2.274       .  S
In69         O77   2.242       .  S
In69         O78   2.245       .  S
In69         O81   2.255       .  S
C70         C453   1.478       .  S
C70          O76   1.263       .  A
C70          O78   1.257       .  A
O71          C79   1.261       .  A
O72          C79   1.264       .  A
C73          O80   1.256       .  A
C73          O74   1.261       .  A
C73         C464   1.445       .  S
C75         C449   1.472       .  S
C75          O77   1.258       .  A
C75          O81   1.261       .  A
C79         C458   1.477       .  S
In82         O84   2.253       .  S
In82         O85   2.252       .  S
In82         O93   2.245       .  S
In82         O87   2.286       .  S
In82         O89   2.263       .  S
In82         O90   2.277       .  S
In82         O91   2.263       .  S
In82         O94   2.240       .  S
C83         C474   1.478       .  S
C83          O89   1.257       .  A
C83          O91   1.259       .  A
O84          C92   1.257       .  A
O85          C92   1.260       .  A
C86          O93   1.254       .  A
C86          O87   1.260       .  A
C86         C461   1.444       .  S
C88         C445   1.483       .  S
C88          O90   1.266       .  A
C88          O94   1.260       .  A
C92         C482   1.473       .  S
N95         C100   1.350       .  A
N95          C99   1.350       .  A
N95         H127   1.043       .  S
N96         C103   1.348       .  A
N96         C104   1.342       .  A
N97         C102   1.350       .  A
N97         C101   1.352       .  A
N97         H128   1.040       .  S
N98         C105   1.350       .  A
N98         C106   1.349       .  A
C99         C107   1.386   1_455  A
C99         C115   1.415       .  A
C100        C116   1.408       .  A
C100        C108   1.387   1_455  A
C101        C109   1.387       .  A
C101        C118   1.415       .  A
C102        C117   1.409       .  A
C102        C110   1.387       .  A
C103        C115   1.410       .  A
C103        C111   1.385       .  A
C104        C118   1.407       .  A
C104        C112   1.388       .  A
C105        C113   1.385       .  A
C105        C116   1.411       .  A
C106        C114   1.387       .  A
C106        C117   1.413       .  A
C107        C108   1.376       .  A
C107        H119   1.082       .  S
C108        H120   1.082       .  S
C109        C110   1.376       .  A
C109        H121   1.082       .  S
C110        H122   1.082       .  S
C111        C112   1.381       .  A
C111        H123   1.081       .  S
C112        H124   1.082       .  S
C113        C114   1.380       .  A
C113        H125   1.082       .  S
C114        H126   1.082       .  S
C115        C149   1.505   1_455  S
C116        C450   1.482   1_455  S
C117        C437   1.480       .  S
C118        C441   1.478       .  S
N129        C134   1.347       .  A
N129        C133   1.347   1_456  A
N129        H161   1.046       .  S
N130        C137   1.355       .  A
N130        C138   1.346       .  A
N131        C136   1.365       .  A
N131        C135   1.363       .  A
N131        H162   1.036       .  S
N132        C139   1.352       .  A
N132        C140   1.343       .  A
C133        C141   1.388       .  A
C133        C149   1.401       .  A
C134        C150   1.398       .  A
C134        C142   1.383   1_455  A
C135        C143   1.385       .  A
C135        C152   1.430   1_556  A
C136        C151   1.437       .  A
C136        C144   1.389       .  A
C137        C149   1.413       .  A
C137        C145   1.381       .  A
C138        C152   1.426       .  A
C138        C146   1.395       .  A
C139        C147   1.378       .  A
C139        C150   1.407   1_655  A
C140        C148   1.395       .  A
C140        C151   1.421       .  A
C141        C142   1.369   1_554  A
C141        H153   1.083       .  S
C142        H154   1.083       .  S
C143        C144   1.377       .  A
C143        H155   1.082       .  S
C144        H156   1.082       .  S
C145        C146   1.372       .  A
C145        H157   1.083       .  S
C146        H158   1.079       .  S
C147        C148   1.384       .  A
C147        H159   1.082   1_655  S
C148        H160   1.081       .  S
C150        C433   1.490       .  S
C151        C429   1.503       .  S
C152        C454   1.497       .  S
In163       O165   2.238       .  S
In163       O166   2.252       .  S
In163       O174   2.238       .  S
In163       O168   2.234       .  S
In163       O170   2.228       .  S
In163       O171   2.274       .  S
In163       O172   2.235       .  S
In163       O175   2.247       .  S
C164        C486   1.464       .  S
C164        O170   1.260   1_554  A
C164        O172   1.260   1_554  A
O165        C173   1.258       .  A
O166        C173   1.263       .  A
C167        O174   1.261       .  A
C167        O168   1.257       .  A
C167        C428   1.428       .  S
C169        C470   1.483       .  S
C169        O171   1.260       .  A
C169        O175   1.259       .  A
C173        C421   1.472       .  S
In176       O178   2.219       .  S
In176       O179   2.277       .  S
In176       O187   2.220       .  S
In176       O181   2.245       .  S
In176       O183   2.235   1_556  S
In176       O184   2.245       .  S
In176       O185   2.231       .  S
In176       O188   2.239       .  S
C177        C442   1.463       .  S
C177        O183   1.260       .  A
C177        O185   1.260   1_554  A
O178        C186   1.256       .  A
O179        C186   1.263       .  A
C180        O187   1.259       .  A
C180        O181   1.260       .  A
C180        C425   1.427       .  S
C182        C417   1.469       .  S
C182        O184   1.261       .  A
C182        O188   1.259       .  A
C186        C434   1.469       .  S
N189        C194   1.352       .  A
N189        C193   1.353       .  A
N189        H221   1.042       .  S
N190        C197   1.350   1_565  A
N190        C198   1.350       .  A
N191        C196   1.354       .  A
N191        C195   1.355       .  A
N191        H222   1.036       .  S
N192        C199   1.351       .  A
N192        C200   1.350       .  A
C193        C201   1.384       .  A
C193        C209   1.408       .  A
C194        C210   1.409       .  A
C194        C202   1.388       .  A
C195        C203   1.382       .  A
C195        C212   1.410       .  A
C196        C211   1.424       .  A
C196        C204   1.392       .  A
C197        C209   1.408   1_545  A
C197        C205   1.387       .  A
C198        C212   1.406       .  A
C198        C206   1.384   1_565  A
C199        C207   1.382       .  A
C199        C210   1.408       .  A
C200        C208   1.391       .  A
C200        C211   1.423       .  A
C201        C202   1.364       .  A
C201        H213   1.082       .  S
C202        H214   1.079       .  S
C203        C204   1.378       .  A
C203        H215   1.082       .  S
C204        H216   1.082       .  S
C205        C206   1.362       .  A
C205        H217   1.080       .  S
C206        H218   1.082       .  S
C207        C208   1.377       .  A
C207        H219   1.082       .  S
C208        H220   1.081       .  S
C209        C243   1.524   1_565  S
C210        C409   1.482       .  S
C211        C422   1.489       .  S
C212        C413   1.487   1_565  S
N223        C228   1.346       .  A
N223        C227   1.345       .  A
N223        H255   1.041       .  S
N224        C231   1.346       .  A
N224        C232   1.342   1_545  A
N225        C230   1.359       .  A
N225        C229   1.365   1_545  A
N225        H256   1.037       .  S
N226        C233   1.355       .  A
N226        C234   1.348       .  A
C227        C235   1.384       .  A
C227        C243   1.399       .  A
C228        C244   1.407       .  A
C228        C236   1.391       .  A
C229        C237   1.386       .  A
C229        C246   1.432       .  A
C230        C245   1.432       .  A
C230        C238   1.388   1_545  A
C231        C243   1.406       .  A
C231        C239   1.383       .  A
C232        C246   1.413       .  A
C232        C240   1.393       .  A
C233        C241   1.381       .  A
C233        C244   1.412       .  A
C234        C242   1.392       .  A
C234        C245   1.421       .  A
C235        C236   1.377       .  A
C235        H247   1.082       .  S
C236        H248   1.082       .  S
C237        C238   1.384       .  A
C237        H249   1.082       .  S
C238        H250   1.082       .  S
C239        C240   1.377   1_545  A
C239        H251   1.082       .  S
C240        H252   1.082       .  S
C241        C242   1.377       .  A
C241        H253   1.082       .  S
C242        H254   1.082       .  S
C244        C401   1.483       .  S
C245        C446   1.496       .  S
C246        C405   1.498       .  S
In257       O259   2.243       .  S
In257       O260   2.267       .  S
In257       O268   2.233       .  S
In257       O262   2.245       .  S
In257       O264   2.248       .  S
In257       O265   2.247       .  S
In257       O266   2.262       .  S
In257       O269   2.240       .  S
C258        C393   1.478       .  S
C258        O264   1.261       .  A
C258        O266   1.261       .  A
O259        C267   1.259       .  A
O260        C267   1.263       .  A
C261        O268   1.259       .  A
C261        O262   1.261       .  A
C261        C397   1.431       .  S
C263        C438   1.470       .  S
C263        O265   1.262       .  A
C263        O269   1.258       .  A
C267        C389   1.478       .  S
In270       O272   2.240       .  S
In270       O273   2.258       .  S
In270       O281   2.241       .  S
In270       O275   2.244       .  S
In270       O277   2.244       .  S
In270       O278   2.261       .  S
In270       O279   2.252       .  S
In270       O282   2.255       .  S
C271        C414   1.472       .  S
C271        O277   1.260       .  A
C271        O279   1.261       .  A
O272        C280   1.257       .  A
O273        C280   1.261       .  A
C274        O281   1.259       .  A
C274        O275   1.259       .  A
C274        C400   1.432       .  S
C276        C402   1.476       .  S
C276        O278   1.259       .  A
C276        O282   1.257       .  A
C280        C478   1.471       .  S
N283        C288   1.350       .  A
N283        C287   1.342       .  A
N283        H315   1.044       .  S
N284        C291   1.347       .  A
N284        C292   1.346       .  A
N285        C290   1.355       .  A
N285        C289   1.357       .  A
N285        H316   1.036       .  S
N286        C293   1.351       .  A
N286        C294   1.345       .  A
C287        C295   1.383       .  A
C287        C303   1.397       .  A
C288        C304   1.408       .  A
C288        C296   1.391       .  A
C289        C297   1.382       .  A
C289        C306   1.417       .  A
C290        C305   1.431       .  A
C290        C298   1.393       .  A
C291        C303   1.403       .  A
C291        C299   1.387       .  A
C292        C306   1.407       .  A
C292        C300   1.386       .  A
C293        C301   1.380       .  A
C293        C304   1.409       .  A
C294        C302   1.394       .  A
C294        C305   1.427       .  A
C295        C296   1.370       .  A
C295        H307   1.083       .  S
C296        H308   1.079       .  S
C297        C298   1.382       .  A
C297        H309   1.082       .  S
C298        H310   1.082       .  S
C299        C300   1.367       .  A
C299        H311   1.080       .  S
C300        H312   1.082       .  S
C301        C302   1.380       .  A
C301        H313   1.082       .  S
C302        H314   1.081       .  S
C303        C337   1.509       .  S
C304        C385   1.488       .  S
C305        C418   1.489       .  S
C306        C394   1.488       .  S
N317        C322   1.345       .  A
N317        C321   1.341       .  A
N317        H349   1.039       .  S
N318        C325   1.346       .  A
N318        C326   1.343       .  A
N319        C324   1.357       .  A
N319        C323   1.365       .  A
N319        H350   1.035       .  S
N320        C327   1.356       .  A
N320        C328   1.347       .  A
C321        C329   1.383       .  A
C321        C337   1.393       .  A
C322        C338   1.407       .  A
C322        C330   1.392       .  A
C323        C331   1.385       .  A
C323        C340   1.432       .  A
C324        C339   1.435       .  A
C324        C332   1.390       .  A
C325        C337   1.404       .  A
C325        C333   1.382       .  A
C326        C340   1.415       .  A
C326        C334   1.393       .  A
C327        C335   1.380       .  A
C327        C338   1.415       .  A
C328        C336   1.393       .  A
C328        C339   1.425       .  A
C329        C330   1.377       .  A
C329        H341   1.083       .  S
C330        H342   1.082       .  S
C331        C332   1.381       .  A
C331        H343   1.082       .  S
C332        H344   1.082       .  S
C333        C334   1.373       .  A
C333        H345   1.083       .  S
C334        H346   1.082       .  S
C335        C336   1.378       .  A
C335        H347   1.082       .  S
C336        H348   1.081       .  S
C338        C390   1.484       .  S
C339        C457   1.491       .  S
C340        C382   1.495       .  S
In351       O353   2.262       .  S
In351       O354   2.252       .  S
In351       O362   2.252       .  S
In351       O356   2.277       .  S
In351       O358   2.273       .  S
In351       O359   2.270       .  S
In351       O360   2.274       .  S
In351       O363   2.244       .  S
C352        C381   1.487       .  S
C352        O358   1.259       .  A
C352        O360   1.259       .  A
O353        C361   1.264       .  A
O354        C361   1.262       .  A
C355        O362   1.257       .  A
C355        O356   1.261       .  A
C355        C380   1.445       .  S
C357        C386   1.477       .  S
C357        O359   1.263       .  A
C357        O363   1.258       .  A
C361        C430   1.482       .  S
In364       O366   2.255       .  S
In364       O367   2.239       .  S
In364       O375   2.242       .  S
In364       O369   2.287       .  S
In364       O371   2.268       .  S
In364       O372   2.240       .  S
In364       O373   2.295       .  S
In364       O376   2.267       .  S
C365        C406   1.489       .  S
C365        O371   1.258       .  A
C365        O373   1.261       .  A
O366        C374   1.260       .  A
O367        C374   1.263       .  A
C368        O375   1.254       .  A
C368        O369   1.261       .  A
C368        C377   1.443       .  S
C370        C466   1.476       .  S
C370        O372   1.258       .  A
C370        O376   1.264       .  A
C374        C410   1.476       .  S
C377        C378   1.211       .  T
C378        C379   1.421       .  S
C379        C380   1.211       .  T
C381        C382   1.348       .  D
C381        H383   1.087       .  S
C382        H384   1.087       .  S
C385        C386   1.342       .  D
C385        H387   1.086       .  S
C386        H388   1.087       .  S
C389        C390   1.346       .  D
C389        H391   1.087       .  S
C390        H392   1.087       .  S
C393        C394   1.348       .  D
C393        H395   1.087       .  S
C394        H396   1.086       .  S
C397        C398   1.204       .  T
C398        C399   1.409       .  S
C399        C400   1.204       .  T
C401        C402   1.346       .  D
C401        H403   1.086       .  S
C402        H404   1.087       .  S
C405        C406   1.350       .  D
C405        H407   1.086       .  S
C406        H408   1.087       .  S
C409        C410   1.341       .  D
C409        H411   1.087       .  S
C410        H412   1.087       .  S
C413        C414   1.346       .  D
C413        H415   1.086   1_545  S
C414        H416   1.087       .  S
C417        C418   1.343       .  D
C417        H419   1.087       .  S
C418        H420   1.086       .  S
C421        C422   1.341       .  D
C421        H423   1.087       .  S
C422        H424   1.087       .  S
C425        C426   1.201       .  T
C426        C427   1.404       .  S
C427        C428   1.201       .  T
C429        C430   1.348       .  D
C429        H431   1.084       .  S
C430        H432   1.086       .  S
C433        C434   1.346       .  D
C433        H435   1.086       .  S
C434        H436   1.087       .  S
C437        C438   1.339       .  D
C437        H439   1.086       .  S
C438        H440   1.087       .  S
C441        C442   1.343       .  D
C441        H443   1.086       .  S
C442        H444   1.088       .  S
C445        C446   1.344       .  D
C445        H447   1.087       .  S
C446        H448   1.086       .  S
C449        C450   1.342       .  D
C449        H451   1.087       .  S
C450        H452   1.086       .  S
C453        C454   1.343       .  D
C453        H455   1.087       .  S
C454        H456   1.087       .  S
C457        C458   1.343       .  D
C457        H459   1.086       .  S
C458        H460   1.087       .  S
C461        C462   1.211       .  T
C462        C463   1.422       .  S
C463        C464   1.212       .  T
C465        C466   1.345       .  D
C465        H467   1.085       .  S
C466        H468   1.087       .  S
C469        C470   1.344       .  D
C469        H471   1.088       .  S
C470        H472   1.086       .  S
C473        C474   1.344   1_565  D
C473        H475   1.087       .  S
C474        H476   1.087       .  S
C477        C478   1.340       .  D
C477        H479   1.086       .  S
C478        H480   1.087       .  S
C481        C482   1.340       .  D
C481        H483   1.086       .  S
C482        H484   1.087       .  S
C485        C486   1.343       .  D
C485        H487   1.086       .  S
C486        H488   1.087       .  S
