geometry optimzed in LAMMPS
_audit_creation_date              2020-11-30 
_audit_creation_method            'lammps2cif' 
_symmetry_space_group_name_H-M    'P1' 
_symmetry_Int_Tables_number       1 
_symmetry_cell_setting            triclinic 
loop_ 
_symmetry_equiv_pos_as_xyz 
  x,y,z 
_cell_length_a                    56.5826297618892 
_cell_length_b                    55.33481265944369 
_cell_length_c                    56.248430630841824 
_cell_angle_alpha                 90.90404229836842 
_cell_angle_beta                  90.71421145301426 
_cell_angle_gamma                 90.3967721741533 
loop_ 
_atom_site_label 
_atom_site_type_symbol 
_atom_site_fract_x 
_atom_site_fract_y 
_atom_site_fract_z 
_atom_site_charge 
C1          C  0.74399856  0.49519963  0.98858671    -0.02130
C2          C  0.49439235  0.74740879  0.98597316    -0.02130
C3          C  0.99135439  0.49279020  0.74335238    -0.02130
C4          C  0.49166623  0.99376347  0.73867022    -0.02130
C5          C  0.74029465  0.99286842  0.49406187    -0.02130
C6          C  0.99095171  0.74253437  0.49055668    -0.02130
C7          C  0.24418914  0.49541372  0.99421284    -0.02130
O8          O  0.01622893  0.60560861  0.97141267    -0.72580
O9          O  0.97026193  0.60230689  0.02427851    -0.73560
O10         O  0.96660388  0.60504751  0.97480960    -0.62180
O11         O  0.02044759  0.60307859  0.02137922    -0.70590
O12         O  0.01955034  0.64303717  0.02533213    -0.70150
O13         O  0.96754284  0.64517538  0.97623060    -0.61400
O14         O  0.96932543  0.64237752  0.02675882    -0.73910
O15         O  0.01778987  0.64560139  0.97491749    -0.72690
Cu16       Cu  0.99345832  0.60264279  0.99794202     1.04560
Cu17       Cu  0.99358259  0.64548948  0.00094634     1.04330
C18         C  0.02428991  0.62597082  0.96473177     0.93620
C19         C  0.96185421  0.62168563  0.03328794     0.92760
C20         C  0.95861619  0.62539173  0.96811211     0.84900
C21         C  0.02850612  0.62270181  0.03073870     0.91170
N22         N  0.87891978  0.52269127  0.82601730    -0.26930
N23         N  0.88603766  0.54472600  0.82055669    -0.34790
C24         C  0.90437061  0.54334480  0.80586793     0.01410
C25         C  0.90966985  0.51933598  0.80176933     0.07440
C26         C  0.89293696  0.50660460  0.81466398    -0.05660
H27         H  0.91388825  0.55896820  0.79960105     0.08110
H28         H  0.89185726  0.48723117  0.81672957     0.09310
Cu29       Cu  0.87604079  0.57668064  0.83653840     0.44170
Cu30       Cu  0.85166633  0.51651556  0.85040803     0.41990
Cu31       Cu  0.83081044  0.57438027  0.87513757     0.43880
N32         N  0.87351948  0.60226794  0.86324929    -0.34310
N33         N  0.85601510  0.60113543  0.87839300    -0.28570
C34         C  0.86256561  0.61235354  0.89877846    -0.04670
C35         C  0.88549276  0.62085656  0.89643671     0.07550
C36         C  0.89169607  0.61445252  0.87346090     0.01340
H37         H  0.85309492  0.61064899  0.91527252     0.09000
H38         H  0.90946178  0.61438776  0.86654926     0.08070
N39         N  0.81593221  0.54129563  0.88197903    -0.35760
N40         N  0.82395878  0.51999024  0.87486648    -0.27940
C41         C  0.81324681  0.50272079  0.88776552    -0.03180
C42         C  0.79791211  0.51395016  0.90350533     0.05430
C43         C  0.80018558  0.53825409  0.89922970     0.03520
H44         H  0.81774980  0.48375518  0.88717431     0.08630
H45         H  0.79276264  0.55287930  0.90966098     0.07460
C46         C  0.99160672  0.49287552  0.23895843    -0.02130
N47         N  0.82553695  0.51079145  0.10451355    -0.26930
N48         N  0.81612599  0.53212237  0.10016349    -0.34790
C49         C  0.79901221  0.52958081  0.08363368     0.01410
C50         C  0.79755074  0.50559426  0.07674386     0.07440
C51         C  0.81474286  0.49407044  0.09022662    -0.05660
H52         H  0.78950328  0.54446516  0.07584664     0.08110
H53         H  0.81931218  0.47512944  0.08941375     0.09310
Cu54       Cu  0.83008995  0.56488269  0.11145755     0.44170
Cu55       Cu  0.85286171  0.50667945  0.12979325     0.41990
Cu56       Cu  0.87174078  0.56526810  0.15622761     0.43880
N57         N  0.85565988  0.59149790  0.11378786    -0.34310
N58         N  0.87177168  0.59170647  0.13090209    -0.28570
C59         C  0.89086787  0.60407158  0.12368514    -0.04670
C60         C  0.88671907  0.61166601  0.10067593     0.07550
C61         C  0.86401782  0.60365180  0.09519305     0.01340
H62         H  0.90794468  0.60346190  0.13253097     0.09000
H63         H  0.85600204  0.60289186  0.07762535     0.08070
N64         N  0.88045449  0.53206342  0.16967524    -0.35760
N65         N  0.87622162  0.51095225  0.15897779    -0.27940
C66         C  0.88993233  0.49415739  0.16940167    -0.03180
C67         C  0.90281020  0.50530786  0.18772345     0.05430
C68         C  0.89627743  0.52920583  0.18730597     0.03520
H69         H  0.89128634  0.47555790  0.16338910     0.08630
H70         H  0.90439492  0.54394859  0.19737933     0.07460
N71         N  0.10292409  0.51689636  0.83249211    -0.26930
N72         N  0.09894371  0.53878723  0.82420053    -0.34790
C73         C  0.08191450  0.53769918  0.80756150     0.01410
C74         C  0.07438640  0.51412168  0.80493670     0.07440
C75         C  0.08794611  0.50124193  0.82113732    -0.05660
H76         H  0.07452697  0.55334825  0.79898839     0.08110
H77         H  0.08687925  0.48206997  0.82450818     0.09310
Cu78       Cu  0.11094326  0.57119246  0.83800108     0.44170
Cu79       Cu  0.12843815  0.51040770  0.85926763     0.41990
Cu80       Cu  0.14789960  0.56958160  0.88404466     0.43880
N81         N  0.11065210  0.59882394  0.86270154    -0.34310
N82         N  0.12521742  0.59812988  0.88106980    -0.28570
C83         C  0.11610836  0.61097380  0.89916629    -0.04670
C84         C  0.09434134  0.61972347  0.89200455     0.07550
C85         C  0.09170373  0.61199722  0.86855574     0.01340
H86         H  0.12229008  0.60968762  0.91738667     0.09000
H87         H  0.07537546  0.61184220  0.85832642     0.08070
N88         N  0.16324883  0.53700385  0.89139603    -0.35760
N89         N  0.15628167  0.51518385  0.88420518    -0.27940
C90         C  0.16992286  0.49871862  0.89544136    -0.03180
C91         C  0.18622425  0.51109645  0.91000156     0.05430
C92         C  0.18115652  0.53517473  0.90686146     0.03520
H93         H  0.16810965  0.47934317  0.89320238     0.08630
H94         H  0.18921944  0.55051647  0.91604731     0.07460
O95         O  0.52618969  0.47046932  0.13864222    -0.72580
O96         O  0.47551313  0.52068968  0.13995453    -0.73560
O97         O  0.47597708  0.46915641  0.14095885    -0.62180
O98         O  0.52550851  0.52160215  0.13741487    -0.70590
O99         O  0.52165966  0.52083755  0.09807728    -0.70150
O100        O  0.47499896  0.46684836  0.10151114    -0.61400
O101        O  0.47202272  0.51779419  0.10065779    -0.73910
O102        O  0.52429570  0.46966699  0.09919602    -0.72690
Cu103      Cu  0.50085901  0.49554037  0.14065780     1.04560
Cu104      Cu  0.49816937  0.49376838  0.09850619     1.04330
C105        C  0.53321496  0.46212107  0.11867110     0.93620
C106        C  0.46574408  0.52713065  0.12049283     0.92760
C107        C  0.46817810  0.45934495  0.12164451     0.84900
C108        C  0.53105433  0.52970644  0.11706667     0.91170
N109        N  0.66062782  0.60967429  0.00220722    -0.26930
N110        N  0.66922904  0.60431530  0.02348106    -0.34790
C111        C  0.68675901  0.58844978  0.02120567     0.01410
C112        C  0.68959257  0.58299060  0.99747685     0.07440
C113        C  0.67255051  0.59657193  0.98574799    -0.05660
H114        H  0.69578924  0.58017614  0.03604028     0.08110
H115        H  0.66894984  0.59670686  0.96681622     0.09310
Cu116      Cu  0.65526393  0.61302600  0.05603483     0.44170
Cu117      Cu  0.63304823  0.63483511  0.99762533     0.41990
Cu118      Cu  0.61618090  0.65757345  0.05691975     0.43880
N119        N  0.63200973  0.61547659  0.08368111    -0.34310
N120        N  0.61666136  0.63321130  0.08396690    -0.28570
C121        C  0.59797386  0.62672220  0.09690544    -0.04670
C122        C  0.60163293  0.60353895  0.10504822     0.07550
C123        C  0.62364575  0.59713748  0.09659038     0.01340
H124        H  0.58128524  0.63615571  0.09663900     0.09000
H125        H  0.63067036  0.57900387  0.09585006     0.08070
N126        N  0.60476559  0.67161482  0.02532065    -0.35760
N127        N  0.60862982  0.66294708  0.00367101    -0.27940
C128        C  0.59427232  0.67473480  0.98830984    -0.03180
C129        C  0.58106434  0.69155985  0.00116321     0.05430
C130        C  0.58839024  0.68882193  0.02442339     0.03520
H131        H  0.59328224  0.67107510  0.96937817     0.08630
H132        H  0.58115155  0.69755933  0.04003304     0.07460
C133        C  0.49138379  0.24274206  0.99308174    -0.02130
O134        O  0.64018057  0.02533345  0.97021898    -0.72580
O135        O  0.63838861  0.97613882  0.02205980    -0.73560
O136        O  0.64009905  0.97409702  0.97153008    -0.62180
O137        O  0.63845437  0.02769266  0.02069111    -0.70590
O138        O  0.59940423  0.02879961  0.01667999    -0.70150
O139        O  0.60089957  0.97222578  0.97189128    -0.61400
O140        O  0.59921791  0.97800104  0.02175851    -0.73910
O141        O  0.60111199  0.02280842  0.96688052    -0.72690
Cu142      Cu  0.64069991  0.00081897  0.99624492     1.04560
Cu143      Cu  0.59881435  0.00044898  0.99428848     1.04330
C144        C  0.62085251  0.03139051  0.96002072     0.93620
C145        C  0.61842842  0.96950828  0.03022798     0.92760
C146        C  0.62065243  0.96460852  0.96413061     0.84900
C147        C  0.61858819  0.03715927  0.02585533     0.91170
N148        N  0.51493728  0.87901806  0.81874299    -0.26930
N149        N  0.53530415  0.88929349  0.81316873    -0.34790
C150        C  0.53142571  0.90654184  0.79717386     0.01410
C151        C  0.50756729  0.90742331  0.79232416     0.07440
C152        C  0.49745215  0.88993304  0.80644307    -0.05660
H153        H  0.54484376  0.91881523  0.79085495     0.08110
H154        H  0.47879960  0.88614878  0.80839114     0.09310
Cu155      Cu  0.56732795  0.88437646  0.83026479     0.44170
Cu156      Cu  0.51216293  0.85157269  0.84390833     0.41990
Cu157      Cu  0.57067914  0.83527196  0.86631500     0.43880
N158        N  0.59318569  0.88234886  0.85625764    -0.34310
N159        N  0.59445358  0.86333172  0.86999622    -0.28570
C160        C  0.60629846  0.86938588  0.89006773    -0.04670
C161        C  0.61273760  0.89351400  0.88898981     0.07550
C162        C  0.60439812  0.90105120  0.86710044     0.01340
H163        H  0.60671076  0.85833224  0.90576734     0.09000
H164        H  0.60286617  0.91960442  0.86151004     0.08070
N165        N  0.53992937  0.81772095  0.87493293    -0.35760
N166        N  0.51831917  0.82415650  0.86852923    -0.27940
C167        C  0.50273548  0.81250956  0.88242839    -0.03180
C168        C  0.51537580  0.79840829  0.89829636     0.05430
C169        C  0.53876291  0.80214902  0.89282476     0.03520
H170        H  0.48390850  0.81578931  0.88248749     0.08630
H171        H  0.55398432  0.79592706  0.90276833     0.07460
C172        C  0.49293030  0.99302265  0.24330939    -0.02130
N173        N  0.50524472  0.82950943  0.10172670    -0.26930
N174        N  0.52599149  0.82243988  0.09353056    -0.34790
C175        C  0.52261104  0.80645371  0.07569941     0.01410
C176        C  0.49872789  0.80324615  0.07213363     0.07440
C177        C  0.48803722  0.81820826  0.08876747    -0.05660
H178        H  0.53660238  0.79881973  0.06506484     0.08110
H179        H  0.46929087  0.82109067  0.09091662     0.09310
Cu180      Cu  0.55868824  0.83707157  0.10194846     0.44170
Cu181      Cu  0.50166053  0.85460752  0.12987559     0.41990
Cu182      Cu  0.56063464  0.87353527  0.15033276     0.43880
N183        N  0.58607158  0.86146290  0.10646042    -0.34310
N184        N  0.58665810  0.87570284  0.12541769    -0.28570
C185        C  0.59964533  0.89542759  0.12084075    -0.04670
C186        C  0.60763590  0.89359163  0.09772637     0.07550
C187        C  0.59890003  0.87159938  0.08925797     0.01340
H188        H  0.59963855  0.91168431  0.13179063     0.09000
H189        H  0.59805752  0.86584204  0.07078650     0.08070
N190        N  0.52980796  0.88215328  0.16716068    -0.35760
N191        N  0.50805734  0.87732101  0.15956662    -0.27940
C192        C  0.49288042  0.89006605  0.17324692    -0.03180
C193        C  0.50594412  0.90318682  0.19026898     0.05430
C194        C  0.52917940  0.89768901  0.18550965     0.03520
H195        H  0.47392792  0.89039820  0.17051994     0.08630
H196        H  0.54482874  0.90597399  0.19339669     0.07460
N197        N  0.51932010  0.11281599  0.81995332    -0.26930
N198        N  0.54057994  0.10647427  0.81265467    -0.34790
C199        C  0.53872199  0.08764146  0.79756030     0.01410
C200        C  0.51523961  0.08126186  0.79501962     0.07440
C201        C  0.50323964  0.09780846  0.80928973    -0.05660
H202        H  0.55370730  0.07808168  0.79036103     0.08110
H203        H  0.48452747  0.09775940  0.81301387     0.09310
Cu204      Cu  0.57241218  0.11695970  0.82756033     0.44170
Cu205      Cu  0.51464870  0.13960184  0.84664493     0.41990
Cu206      Cu  0.57278184  0.15866512  0.87175809     0.43880
N207        N  0.59815673  0.11626534  0.85357633    -0.34310
N208        N  0.59841259  0.13260661  0.87083347    -0.28570
C209        C  0.60967199  0.12360962  0.88987683    -0.04670
C210        C  0.61639299  0.10017587  0.88449017     0.07550
C211        C  0.60912496  0.09631443  0.86112325     0.01340
H212        H  0.60876692  0.13152363  0.90755954     0.09000
H213        H  0.60801081  0.07900071  0.85194948     0.08070
N214        N  0.54090013  0.17331684  0.88113191    -0.35760
N215        N  0.51963857  0.16615319  0.87369676    -0.27940
C216        C  0.50341390  0.17669746  0.88793018    -0.03180
C217        C  0.51528832  0.19075414  0.90505455     0.05430
C218        C  0.53886603  0.18817643  0.89995552     0.03520
H219        H  0.48463778  0.17290331  0.88709314     0.08630
H220        H  0.55369290  0.19502802  0.91043598     0.07460
O221        O  0.09810782  0.52624820  0.52432296    -0.72580
O222        O  0.09792688  0.47588366  0.47322873    -0.73560
O223        O  0.09790224  0.47528155  0.52295986    -0.62180
O224        O  0.09839840  0.52719451  0.47439146    -0.70590
O225        O  0.13762892  0.52670148  0.47431717    -0.70150
O226        O  0.13709992  0.47568456  0.52431089    -0.61400
O227        O  0.13715903  0.47538167  0.47363056    -0.73910
O228        O  0.13725491  0.52726745  0.52498964    -0.72690
Cu229      Cu  0.09677253  0.50118826  0.49868771     1.04560
Cu230      Cu  0.13870986  0.50128409  0.49934115     1.04330
C231        C  0.11746056  0.53484665  0.53282974     0.93620
C232        C  0.11733688  0.46733937  0.46556319     0.92760
C233        C  0.11735308  0.46714851  0.53124550     0.84900
C234        C  0.11806359  0.53514455  0.46666124     0.91170
N235        N  0.00546094  0.65901952  0.60435989    -0.26930
N236        N  0.02559088  0.67091166  0.60143403    -0.34790
C237        C  0.02248692  0.68811660  0.58520101     0.01410
C238        C  0.99948228  0.68702638  0.57695274     0.07440
C239        C  0.98909338  0.66823715  0.58932281    -0.05660
H240        H  0.03654666  0.69931074  0.57839445     0.08110
H241        H  0.97125245  0.66136164  0.58705486     0.09310
Cu242      Cu  0.05838457  0.66025884  0.61366746     0.44170
Cu243      Cu  0.00230638  0.62995850  0.62809185     0.41990
Cu244      Cu  0.05991433  0.61594391  0.65502332     0.43880
N245        N  0.08780305  0.63877442  0.61748011    -0.34310
N246        N  0.08872712  0.62240431  0.63419211    -0.28570
C247        C  0.10349073  0.60478434  0.62747172    -0.04670
C248        C  0.11176327  0.60971866  0.60498111     0.07550
C249        C  0.10180993  0.63181625  0.59954228     0.01340
H250        H  0.10341707  0.58707796  0.63538482     0.09000
H251        H  0.10041208  0.63914354  0.58185435     0.08070
N252        N  0.02891807  0.59817082  0.66257344    -0.35760
N253        N  0.00782867  0.60240258  0.65312336    -0.27940
C254        C  0.99260365  0.58538352  0.66097387    -0.03180
C255        C  0.00508414  0.56956439  0.67538953     0.05430
C256        C  0.02789713  0.57838118  0.67593420     0.03520
H257        H  0.97414866  0.58403491  0.65583814     0.08630
H258        H  0.04292252  0.57065593  0.68507962     0.07460
O259        O  0.52453341  0.14517494  0.52672926    -0.72580
O260        O  0.47153336  0.14746186  0.47831683    -0.73560
O261        O  0.47427558  0.14688526  0.52899192    -0.62180
O262        O  0.52162292  0.14595371  0.47647181    -0.70590
O263        O  0.51893759  0.10593640  0.47455655    -0.70150
O264        O  0.47379461  0.10676956  0.52870059    -0.61400
O265        O  0.46917648  0.10741224  0.47864336    -0.73910
O266        O  0.52305372  0.10508435  0.52489268    -0.72690
Cu267      Cu  0.49802785  0.14780265  0.50265471     1.04560
Cu268      Cu  0.49620130  0.10492836  0.50161328     1.04330
C269        C  0.53204689  0.12462119  0.53346519     0.93620
C270        C  0.46191891  0.12768883  0.47099011     0.92760
C271        C  0.46688385  0.12692941  0.53740950     0.84900
C272        C  0.52763823  0.12577626  0.46713041     0.91170
N273        N  0.66157351  0.00855746  0.60887777    -0.26930
N274        N  0.67171469  0.02933099  0.60331961    -0.34790
C275        C  0.68823747  0.02540662  0.58688379     0.01410
C276        C  0.68854745  0.00111708  0.58128649     0.07440
C277        C  0.67125928  0.99083582  0.59537033    -0.05660
H278        H  0.69794151  0.03955512  0.57810059     0.08110
H279        H  0.66565939  0.97210447  0.59524733     0.09310
Cu280      Cu  0.65956074  0.06324902  0.61228395     0.44170
Cu281      Cu  0.63428800  0.00630114  0.63406506     0.41990
Cu282      Cu  0.62029637  0.06662164  0.65758042     0.43880
N283        N  0.63668155  0.09191991  0.61495160    -0.34310
N284        N  0.62200634  0.09347962  0.63289134    -0.28570
C285        C  0.60349871  0.10707854  0.62655732    -0.04670
C286        C  0.60636091  0.11408107  0.60324455     0.07550
C287        C  0.62788182  0.10448406  0.59663025     0.01340
H288        H  0.58712082  0.10762843  0.63628385     0.09000
H289        H  0.63411219  0.10262267  0.57858369     0.08070
N290        N  0.60538917  0.03511864  0.66940856    -0.35760
N291        N  0.60902375  0.01313422  0.66063529    -0.27940
C292        C  0.59265718  0.99807325  0.66982797    -0.03180
C293        C  0.57799949  0.01152017  0.68460951     0.05430
C294        C  0.58678966  0.03476882  0.68387456     0.03520
H295        H  0.59052771  0.97921733  0.66483921     0.08630
H296        H  0.57923197  0.05071897  0.69205773     0.07460
C297        C  0.24294200  0.99476703  0.48813653    -0.02130
O298        O  0.96361086  0.02443517  0.54454156    -0.72580
O299        O  0.01348613  0.97246244  0.54436691    -0.73560
O300        O  0.96302416  0.97272098  0.53979973    -0.62180
O301        O  0.01366609  0.02390911  0.54891264    -0.70590
O302        O  0.01071270  0.01989472  0.58799908    -0.70150
O303        O  0.96078499  0.97024932  0.57913932    -0.61400
O304        O  0.00949329  0.96960577  0.58346564    -0.73910
O305        O  0.96114223  0.02057356  0.58368276    -0.72690
Cu306      Cu  0.98853059  0.99850751  0.54284751     1.04560
Cu307      Cu  0.98540883  0.99505560  0.58478503     1.04330
C308        C  0.95462040  0.03060820  0.56447383     0.93620
C309        C  0.01907791  0.96278514  0.56416447     0.92760
C310        C  0.95431861  0.96326683  0.55838613     0.84900
C311        C  0.02026258  0.02965663  0.57009780     0.91170
N312        N  0.87583404  0.82463585  0.50765304    -0.26930
N313        N  0.87735319  0.81153482  0.52710251    -0.34790
C314        C  0.89477324  0.79543592  0.52484911     0.01410
C315        C  0.90502232  0.79844980  0.50305448     0.07440
C316        C  0.89274382  0.81717464  0.49249458    -0.05660
H317        H  0.90095870  0.78388777  0.53894010     0.08110
H318        H  0.89634420  0.82526670  0.47552279     0.09310
Cu319      Cu  0.86294011  0.82152737  0.55892541     0.44170
Cu320      Cu  0.85138203  0.85302019  0.50426391     0.41990
Cu321      Cu  0.81887611  0.86393312  0.55904307     0.43880
N322        N  0.86746557  0.85440927  0.57543667    -0.34310
N323        N  0.85056138  0.87062565  0.57576822    -0.28570
C324        C  0.86034254  0.89281807  0.57597479    -0.04670
C325        C  0.88468387  0.89049808  0.57481384     0.07550
C326        C  0.88845654  0.86580122  0.57526815     0.01340
H327        H  0.85018722  0.90901817  0.57334616     0.09000
H328        H  0.90479801  0.85672976  0.57110168     0.08070
N329        N  0.80905437  0.87744410  0.52673969    -0.35760
N330        N  0.82235149  0.87651506  0.50752914    -0.27940
C331        C  0.81469885  0.89355284  0.49235291    -0.03180
C332        C  0.79561040  0.90521305  0.50257315     0.05430
C333        C  0.79261929  0.89453250  0.52423313     0.03520
H334        H  0.82299907  0.89782576  0.47569870     0.08630
H335        H  0.78096368  0.90051194  0.53822261     0.07460
C336        C  0.99064801  0.24430455  0.48397504    -0.02130
N337        N  0.81943663  0.11472681  0.50258125    -0.26930
N338        N  0.80974938  0.11377697  0.52383517    -0.34790
C339        C  0.79339063  0.09630987  0.52401093     0.01410
C340        C  0.79231511  0.08517506  0.50191136     0.07440
C341        C  0.80916665  0.09735483  0.48858952    -0.05660
H342        H  0.78449323  0.09066107  0.53992825     0.08110
H343        H  0.81407862  0.09347313  0.47041457     0.09310
Cu344      Cu  0.82333472  0.12869255  0.55461359     0.44170
Cu345      Cu  0.84727000  0.13919196  0.49548942     0.41990
Cu346      Cu  0.86481215  0.17125989  0.55041789     0.43880
N347        N  0.85385002  0.12585087  0.57405651    -0.34310
N348        N  0.87059281  0.14221342  0.57167407    -0.28570
C349        C  0.89173877  0.13167009  0.57443088    -0.04670
C350        C  0.88805881  0.10736141  0.57860136     0.07550
C351        C  0.86377320  0.10446593  0.57874989     0.01340
H352        H  0.90829679  0.14004360  0.56959810     0.09000
H353        H  0.85436958  0.08740158  0.57726382     0.08070
N354        N  0.87368859  0.18224155  0.51717751    -0.35760
N355        N  0.87106554  0.16882924  0.49760359    -0.27940
C356        C  0.88678965  0.17672023  0.48149628    -0.03180
C357        C  0.89923738  0.19621427  0.49149582     0.05430
C358        C  0.89029037  0.19914038  0.51394088     0.03520
H359        H  0.88986080  0.16812273  0.46441708     0.08630
H360        H  0.89762377  0.21055246  0.52803403     0.07460
N361        N  0.11044636  0.82247018  0.50219161    -0.26930
N362        N  0.10694775  0.81412502  0.52381175    -0.34790
C363        C  0.08970467  0.79759641  0.52324811     0.01410
C364        C  0.08135470  0.79485065  0.50029543     0.07440
C365        C  0.09480480  0.81109543  0.48721161    -0.05660
H366        H  0.08221452  0.78985033  0.53903693     0.08110
H367        H  0.09289489  0.81480945  0.46846380     0.09310
Cu368      Cu  0.11740282  0.82956622  0.55545290     0.44170
Cu369      Cu  0.13601535  0.84998121  0.49591777     0.41990
Cu370      Cu  0.15679600  0.87189389  0.55475033     0.43880
N371        N  0.11189033  0.85980646  0.57575585    -0.34310
N372        N  0.12782834  0.87715746  0.57516064    -0.28570
C373        C  0.11716622  0.89859082  0.57778727    -0.04670
C374        C  0.09314908  0.89444478  0.57966881     0.07550
C375        C  0.09051235  0.86958846  0.57896559     0.01340
H376        H  0.12563643  0.91572114  0.57425306     0.09000
H377        H  0.07406237  0.85988377  0.57585623     0.08070
N378        N  0.17259915  0.87960440  0.52342618    -0.35760
N379        N  0.16460572  0.87467217  0.50167394    -0.27940
C380        C  0.17697281  0.88859938  0.48643433    -0.03180
C381        C  0.19344087  0.90250262  0.49954436     0.05430
C382        C  0.18971084  0.89619032  0.52277664     0.03520
H383        H  0.17368403  0.88924605  0.46746960     0.08630
H384        H  0.19711067  0.90482938  0.53858791     0.07460
N385        N  0.33119063  0.02136108  0.60045937    -0.26930
N386        N  0.32443591  0.04364404  0.59574299    -0.34790
C387        C  0.30872827  0.04320183  0.57778011     0.01410
C388        C  0.30498461  0.01955020  0.57055384     0.07440
C389        C  0.31968624  0.00604563  0.58519842    -0.05660
H390        H  0.30120876  0.05920506  0.56998465     0.08110
H391        H  0.32168746  0.98661590  0.58490220     0.09310
Cu392      Cu  0.33823522  0.07492833  0.61054466     0.44170
Cu393      Cu  0.35567768  0.01403938  0.62794684     0.41990
Cu394      Cu  0.37370628  0.07003002  0.65959599     0.43880
N395        N  0.36355517  0.10067342  0.61817870    -0.34310
N396        N  0.37781347  0.09835339  0.63667220    -0.28570
C397        C  0.39825552  0.10989245  0.63237676    -0.04670
C398        C  0.39681931  0.11982631  0.60993562     0.07550
C399        C  0.37431939  0.11402606  0.60174206     0.01340
H400        H  0.41426070  0.10748314  0.64277623     0.09000
H401        H  0.36827535  0.11501305  0.58345174     0.08070
N402        N  0.38078056  0.03577953  0.67136527    -0.35760
N403        N  0.37724543  0.01561138  0.65879989    -0.27940
C404        C  0.39069807  0.99810369  0.66842189    -0.03180
C405        C  0.40258897  0.00773732  0.68821575     0.05430
C406        C  0.39576534  0.03154744  0.68943128     0.03520
H407        H  0.39279137  0.98019015  0.66079124     0.08630
H408        H  0.40351530  0.04553683  0.70077478     0.07460
N409        N  0.01252466  0.32556510  0.60318298    -0.26930
N410        N  0.03429127  0.31850239  0.59835262    -0.34790
C411        C  0.03383223  0.30303090  0.57986031     0.01410
C412        C  0.01080988  0.29996245  0.57213684     0.07440
C413        C  0.99757100  0.31432545  0.58750742    -0.05660
H414        H  0.04949595  0.29586858  0.57154408     0.08110
H415        H  0.97878588  0.31768178  0.58628947     0.09310
Cu416      Cu  0.06543130  0.33362993  0.61071210     0.44170
Cu417      Cu  0.00531359  0.35245149  0.62923042     0.41990
Cu418      Cu  0.06242766  0.37718941  0.65154221     0.43880
N419        N  0.09178668  0.35929172  0.61282225    -0.34310
N420        N  0.09067968  0.37652057  0.62912523    -0.28570
C421        C  0.10272832  0.39594893  0.62175887    -0.04670
C422        C  0.11151242  0.39086677  0.59939595     0.07550
C423        C  0.10446847  0.36725607  0.59448533     0.01340
H424        H  0.10081720  0.41384048  0.62951857     0.09000
H425        H  0.10428458  0.35860354  0.57709206     0.08070
N426        N  0.02993146  0.38546725  0.66505762    -0.35760
N427        N  0.00885257  0.37859748  0.65690571    -0.27940
C428        C  0.99228910  0.39100443  0.66929302    -0.03180
C429        C  0.00384787  0.40591688  0.68602483     0.05430
C430        C  0.02752655  0.40179778  0.68250394     0.03520
H431        H  0.97341200  0.38926211  0.66642159     0.08630
H432        H  0.04225051  0.41087278  0.69137849     0.07460
N433        N  0.10641863  0.16258399  0.50578460    -0.26930
N434        N  0.10325210  0.17357700  0.52657895    -0.34790
C435        C  0.08480104  0.18849971  0.52514456     0.01410
C436        C  0.07554470  0.18715366  0.50244236     0.07440
C437        C  0.08983827  0.17078872  0.49037647    -0.05660
H438        H  0.07743468  0.19814144  0.54018071     0.08110
H439        H  0.08720713  0.16398634  0.47239579     0.09310
Cu440      Cu  0.11674254  0.16278555  0.55858804     0.44170
Cu441      Cu  0.13073841  0.13391940  0.50142745     0.41990
Cu442      Cu  0.15496654  0.11640855  0.55951566     0.43880
N443        N  0.11187157  0.13489906  0.58145530    -0.34310
N444        N  0.12703425  0.11697371  0.58217848    -0.28570
C445        C  0.11551130  0.09658837  0.58773903    -0.04670
C446        C  0.09176529  0.10176155  0.58969718     0.07550
C447        C  0.09021780  0.12638894  0.58629305     0.01340
H448        H  0.12274273  0.07871740  0.58498424     0.09000
H449        H  0.07414930  0.13626195  0.58274502     0.08070
N450        N  0.16425879  0.10074802  0.52778055    -0.35760
N451        N  0.15510720  0.10548391  0.50659041    -0.27940
C452        C  0.16239566  0.08811965  0.49113241    -0.03180
C453        C  0.17604815  0.07157336  0.50359850     0.05430
C454        C  0.17695590  0.08048325  0.52657364     0.03520
H455        H  0.15721438  0.08693395  0.47257037     0.08630
H456        H  0.18550575  0.07229682  0.54172909     0.07460
N457        N  0.66022730  0.02192002  0.37931677    -0.26930
N458        N  0.66802817  0.04345785  0.38658236    -0.34790
C459        C  0.68360001  0.04086123  0.40441562     0.01410
C460        C  0.68586834  0.01663471  0.40895757     0.07440
C461        C  0.67095768  0.00496134  0.39262802    -0.05660
H462        H  0.69108029  0.05572213  0.41481345     0.08110
H463        H  0.66676617  0.98585981  0.39181886     0.09310
Cu464      Cu  0.65350531  0.07633478  0.37865020     0.44170
Cu465      Cu  0.63286888  0.01729799  0.35398817     0.41990
Cu466      Cu  0.61238061  0.07671650  0.33494371     0.43880
N467        N  0.62801739  0.10256276  0.37847132    -0.34310
N468        N  0.61203119  0.10266842  0.36127707    -0.28570
C469        C  0.59250327  0.11366226  0.36914478    -0.04670
C470        C  0.59628370  0.12060527  0.39262789     0.07550
C471        C  0.61919123  0.11363891  0.39781106     0.01340
H472        H  0.57554240  0.11257843  0.36007101     0.09000
H473        H  0.62690525  0.11233790  0.41544510     0.08070
N474        N  0.60113252  0.04441254  0.32039098    -0.35760
N475        N  0.60651821  0.02259332  0.32796496    -0.27940
C476        C  0.59202401  0.00639559  0.31675365    -0.03180
C477        C  0.57722118  0.01888091  0.30136573     0.05430
C478        C  0.58355408  0.04281142  0.30437451     0.03520
H479        H  0.59204638  0.98713467  0.31976344     0.08630
H480        H  0.57497239  0.05827158  0.29661192     0.07460
N481        N  0.01815378  0.66649737  0.37132250    -0.26930
N482        N  0.03893817  0.67550502  0.37813575    -0.34790
C483        C  0.03614757  0.69050431  0.39673356     0.01410
C484        C  0.01257507  0.69108382  0.40234285     0.07440
C485        C  0.00146281  0.67583084  0.38576061    -0.05660
H486        H  0.05060335  0.69841620  0.40703060     0.08110
H487        H  0.98309000  0.67028064  0.38557906     0.09310
Cu488      Cu  0.07137823  0.66176978  0.36969978     0.44170
Cu489      Cu  0.01483806  0.63884387  0.34536209     0.41990
Cu490      Cu  0.07357301  0.61398575  0.33174810     0.43880
N491        N  0.09662863  0.63575459  0.37410179    -0.34310
N492        N  0.09771768  0.61720586  0.35922772    -0.28570
C493        C  0.10869037  0.59885413  0.37004607    -0.04670
C494        C  0.11431457  0.60606981  0.39312012     0.07550
C495        C  0.10658024  0.62970399  0.39494287     0.01340
H496        H  0.10842531  0.58042194  0.36332116     0.09000
H497        H  0.10463313  0.64009992  0.41125087     0.08070
N498        N  0.04256617  0.60394725  0.31473387    -0.35760
N499        N  0.02101835  0.61131218  0.32000013    -0.27940
C500        C  0.00527370  0.59693029  0.30811852    -0.03180
C501        C  0.01771143  0.57970189  0.29512908     0.05430
C502        C  0.04119197  0.58504862  0.29967869     0.03520
H503        H  0.98630678  0.59788057  0.31008961     0.08630
H504        H  0.05636042  0.57493698  0.29371311     0.07460
N505        N  0.60769597  0.32717374  0.01310294    -0.26930
N506        N  0.60396630  0.31887466  0.03466218    -0.34790
C507        C  0.58655492  0.30247754  0.03384560     0.01410
C508        C  0.57847374  0.29981245  0.01069166     0.07440
C509        C  0.59230173  0.31590147  0.99785821    -0.05660
H510        H  0.57936382  0.29413426  0.04947115     0.08110
H511        H  0.59111881  0.31935737  0.97901173     0.09310
Cu512      Cu  0.61765956  0.33246032  0.06611692     0.44170
Cu513      Cu  0.63327264  0.35432045  0.00724581     0.41990
Cu514      Cu  0.65801266  0.37716824  0.06496843     0.43880
N515        N  0.61940925  0.35750662  0.09333200    -0.34310
N516        N  0.63500065  0.37524001  0.09279378    -0.28570
C517        C  0.62659419  0.39437278  0.10491602    -0.04670
C518        C  0.60432741  0.38854886  0.11305588     0.07550
C519        C  0.60062438  0.36479205  0.10579214     0.01340
H520        H  0.63364867  0.41250372  0.10338891     0.09000
H521        H  0.58370996  0.35553416  0.10516390     0.08070
N522        N  0.66997011  0.38674577  0.03206677    -0.35760
N523        N  0.66070059  0.38022372  0.01115746    -0.27940
C524        C  0.67066599  0.39405975  0.99432311    -0.03180
C525        C  0.68683364  0.40967352  0.00540344     0.05430
C526        C  0.68579010  0.40451662  0.02916741     0.03520
H527        H  0.66558043  0.39374032  0.97571608     0.08630
H528        H  0.69458228  0.41428872  0.04360041     0.07460
N529        N  0.50069693  0.15865092  0.10507481    -0.26930
N530        N  0.52026464  0.17156518  0.10249942    -0.34790
C531        C  0.51634191  0.18911515  0.08683847     0.01410
C532        C  0.49338679  0.18720077  0.07860634     0.07440
C533        C  0.48388604  0.16753495  0.09034785    -0.05660
H534        H  0.52996593  0.20085992  0.08002796     0.08110
H535        H  0.46650296  0.15964895  0.08759329     0.09310
Cu536      Cu  0.55368019  0.16123719  0.11294452     0.44170
Cu537      Cu  0.49918930  0.12842275  0.12738633     0.41990
Cu538      Cu  0.55854520  0.11330633  0.14988599     0.43880
N539        N  0.58315164  0.13958505  0.11233667    -0.34310
N540        N  0.58541233  0.12161363  0.12724529    -0.28570
C541        C  0.60015195  0.10513452  0.11803150    -0.04670
C542        C  0.60698548  0.11266842  0.09579318     0.07550
C543        C  0.59617738  0.13489357  0.09302462     0.01340
H544        H  0.60152007  0.08687408  0.12450248     0.09000
H545        H  0.59431444  0.14453260  0.07652341     0.08070
N546        N  0.52800695  0.09564877  0.15901536    -0.35760
N547        N  0.50639335  0.10012573  0.15102941    -0.27940
C548        C  0.49166104  0.08300010  0.15949480    -0.03180
C549        C  0.50497511  0.06683100  0.17271311     0.05430
C550        C  0.52776305  0.07567303  0.17210240     0.03520
H551        H  0.47289003  0.08193345  0.15570102     0.08630
H552        H  0.54328148  0.06797597  0.18038818     0.07460
N553        N  0.33290614  0.60832605  0.01959275    -0.26930
N554        N  0.32551726  0.60504475  0.04153284    -0.34790
C555        C  0.30936401  0.58731350  0.04159783     0.01410
C556        C  0.30602650  0.57877573  0.01864041     0.07440
C557        C  0.32137503  0.59240671  0.00502567    -0.05660
H558        H  0.30171730  0.58017498  0.05758217     0.08110
H559        H  0.32414712  0.59067607  0.98607965     0.09310
Cu560      Cu  0.34037068  0.61955425  0.07203867     0.44170
Cu561      Cu  0.35926085  0.63372720  0.01174229     0.41990
Cu562      Cu  0.38737500  0.65750217  0.06693822     0.43880
N563        N  0.36686084  0.61998707  0.09720737    -0.34310
N564        N  0.38532723  0.63436999  0.09509735    -0.28570
C565        C  0.40390352  0.62464381  0.10645548    -0.04670
C566        C  0.39688760  0.60274855  0.11571271     0.07550
C567        C  0.37313237  0.60065775  0.10986292     0.01340
H568        H  0.42199899  0.63041070  0.10390589     0.09000
H569        H  0.36265442  0.58425312  0.11054776     0.08070
N570        N  0.39387368  0.67010224  0.03339196    -0.35760
N571        N  0.38510608  0.66111031  0.01314730    -0.27940
C572        C  0.39667619  0.67140098  0.99497948    -0.03180
C573        C  0.41320062  0.68756869  0.00450562     0.05430
C574        C  0.41093362  0.68615731  0.02874907     0.03520
H575        H  0.39414995  0.66653715  0.97641272     0.08630
H576        H  0.42209815  0.69488409  0.04213113     0.07460
N577        N  0.15601823  0.51287481  0.10306646    -0.26930
N578        N  0.16525559  0.53428608  0.09833672    -0.34790
C579        C  0.17832891  0.53269772  0.07876330     0.01410
C580        C  0.17767297  0.50922246  0.07035704     0.07440
C581        C  0.16360473  0.49686458  0.08638018    -0.05660
H582        H  0.18691011  0.54795356  0.07060209     0.08110
H583        H  0.15827666  0.47806711  0.08523847     0.09310
Cu584      Cu  0.15640698  0.56691241  0.11334793     0.44170
Cu585      Cu  0.13119771  0.50841707  0.13049566     0.41990
Cu586      Cu  0.11429524  0.56848176  0.15464943     0.43880
N587        N  0.13374215  0.59555020  0.11490143    -0.34310
N588        N  0.11705485  0.59618952  0.13097866    -0.28570
C589        C  0.09876023  0.60900434  0.12259341    -0.04670
C590        C  0.10397274  0.61627045  0.09979738     0.07550
C591        C  0.12655411  0.60778848  0.09576028     0.01340
H592        H  0.08127938  0.60846611  0.13017149     0.09000
H593        H  0.13491041  0.60630207  0.07859970     0.08070
N594        N  0.10186313  0.53596679  0.16665897    -0.35760
N595        N  0.10636949  0.51418262  0.15779045    -0.27940
C596        C  0.09090739  0.49835045  0.16732590    -0.03180
C597        C  0.07600905  0.51107541  0.18246883     0.05430
C598        C  0.08372716  0.53467928  0.18160610     0.03520
H599        H  0.08943647  0.47945490  0.16226168     0.08630
H600        H  0.07557318  0.55024809  0.18990555     0.07460
N601        N  0.01147817  0.32622570  0.37136104    -0.26930
N602        N  0.03227012  0.31847282  0.37895106    -0.34790
C603        C  0.02901458  0.30154966  0.39537667     0.01410
C604        C  0.00510120  0.29842303  0.39844690     0.07440
C605        C  0.99436390  0.31450206  0.38316851    -0.05660
H606        H  0.04304106  0.29377526  0.40597374     0.08110
H607        H  0.97568419  0.31833645  0.38170245     0.09310
Cu608      Cu  0.06414132  0.33527338  0.37276977     0.44170
Cu609      Cu  0.00804185  0.35372836  0.34666570     0.41990
Cu610      Cu  0.06485413  0.38202864  0.33242727     0.43880
N611        N  0.08870429  0.36283319  0.37536834    -0.34310
N612        N  0.08898109  0.38073252  0.36017963    -0.28570
C613        C  0.10063498  0.39966650  0.37013277    -0.04670
C614        C  0.10769062  0.39349963  0.39288403     0.07550
C615        C  0.10003445  0.36987826  0.39543712     0.01340
H616        H  0.10033259  0.41774235  0.36307309     0.09000
H617        H  0.09935486  0.36005146  0.41190190     0.08070
N618        N  0.03371521  0.38733210  0.31376083    -0.35760
N619        N  0.01275516  0.37880304  0.31980678    -0.27940
C620        C  0.99600896  0.38983917  0.30670386    -0.03180
C621        C  0.00713651  0.40551674  0.29142855     0.05430
C622        C  0.03091222  0.40356723  0.29653908     0.03520
H623        H  0.97717329  0.38761963  0.30904545     0.08630
H624        H  0.04496301  0.41483397  0.28983200     0.07460
N625        N  0.32802928  0.02249984  0.37765391    -0.26930
N626        N  0.31946217  0.04419481  0.38249417    -0.34790
C627        C  0.30308176  0.04253600  0.39926596     0.01410
C628        C  0.30122891  0.01879197  0.40610550     0.07440
C629        C  0.31709968  0.00636331  0.39174034    -0.05660
H630        H  0.29464999  0.05804301  0.40735912     0.08110
H631        H  0.32169290  0.98746245  0.39276946     0.09310
Cu632      Cu  0.33455932  0.07684953  0.37454284     0.44170
Cu633      Cu  0.35623306  0.01742658  0.35405578     0.41990
Cu634      Cu  0.38050182  0.07736583  0.33822387     0.43880
N635        N  0.36031292  0.10288427  0.37907135    -0.34310
N636        N  0.37836171  0.10330344  0.36457178    -0.28570
C637        C  0.39662708  0.11479922  0.37537894    -0.04670
C638        C  0.38985961  0.12151255  0.39809625     0.07550
C639        C  0.36655807  0.11389098  0.39967633     0.01340
H640        H  0.41460142  0.11413002  0.36905720     0.09000
H641        H  0.35640379  0.11272822  0.41579942     0.08070
N642        N  0.38985488  0.04497538  0.32284319    -0.35760
N643        N  0.38311640  0.02306472  0.32914005    -0.27940
C644        C  0.39706765  0.00679608  0.31794754    -0.03180
C645        C  0.41333663  0.01931786  0.30428053     0.05430
C646        C  0.40778029  0.04334770  0.30772720     0.03520
H647        H  0.39623317  0.98749338  0.32058546     0.08630
H648        H  0.41686218  0.05890247  0.30073868     0.07460
N649        N  0.38021547  0.32784257  0.01389820    -0.26930
N650        N  0.38611152  0.31731014  0.03408347    -0.34790
C651        C  0.40256924  0.30055626  0.02991697     0.01410
C652        C  0.40757554  0.30036520  0.00606474     0.07440
C653        C  0.39327762  0.31801739  0.99629831    -0.05660
H654        H  0.41186250  0.29080389  0.04364947     0.08110
H655        H  0.39329118  0.32412167  0.97811997     0.09310
Cu656      Cu  0.37827521  0.32982400  0.06768127     0.44170
Cu657      Cu  0.35602126  0.35646518  0.01229594     0.41990
Cu658      Cu  0.33860955  0.37522708  0.07261163     0.43880
N659        N  0.38056402  0.35421899  0.09557601    -0.34310
N660        N  0.36519230  0.37186334  0.09756650    -0.28570
C661        C  0.37502816  0.39011621  0.11035950    -0.04670
C662        C  0.39799126  0.38385953  0.11630231     0.07550
C663        C  0.40067027  0.36072971  0.10693587     0.01340
H664        H  0.36785915  0.40819090  0.11107749     0.09000
H665        H  0.41722084  0.35131348  0.10477048     0.08070
N666        N  0.32314568  0.38724232  0.04172863    -0.35760
N667        N  0.33015022  0.38249037  0.01980558    -0.27940
C668        C  0.31883166  0.39765973  0.00493407    -0.03180
C669        C  0.30437088  0.41272816  0.01835641     0.05430
C670        C  0.30735411  0.40508308  0.04144797     0.03520
H671        H  0.32180990  0.39849075  0.98600084     0.08630
H672        H  0.29945402  0.41253591  0.05731965     0.07460
C673        C  0.01319074  0.21079189  0.50476305    -0.20940
C674        C  0.01210574  0.22662931  0.48530566    -0.08990
C675        C  0.03246777  0.22772973  0.47057572     0.29870
C676        C  0.05225882  0.21329567  0.47513160    -0.20940
C677        C  0.05304627  0.19833038  0.49487880    -0.09000
C678        C  0.03316184  0.19690968  0.50946937     0.29880
F679        F  0.03326671  0.18252827  0.52880617    -0.19520
H680        H  0.99859952  0.20981785  0.51700462     0.18240
H681        H  0.06777150  0.21523393  0.46420133     0.18250
F682        F  0.03488252  0.24431340  0.45330214    -0.19510
C683        C  0.96404884  0.20560369  0.47991865    -0.20940
C684        C  0.96634963  0.23094266  0.48333615    -0.08990
C685        C  0.94521231  0.24449642  0.48450756     0.29870
C686        C  0.92324191  0.23298578  0.48546416    -0.20940
C687        C  0.92141747  0.20778751  0.48405567    -0.09000
C688        C  0.94189036  0.19416158  0.48044936     0.29880
F689        F  0.94067222  0.16967550  0.47905174    -0.19520
H690        H  0.97926777  0.19433208  0.47695013     0.18240
H691        H  0.90759072  0.24378317  0.48828447     0.18250
F692        F  0.94585194  0.26898567  0.48622864    -0.19510
C693        C  0.97875209  0.25935418  0.52674891    -0.20940
C694        C  0.99396326  0.26047632  0.50687382    -0.08990
C695        C  0.01447032  0.27517187  0.50943568     0.29870
C696        C  0.01901995  0.28844740  0.53024405    -0.20940
C697        C  0.00373403  0.28742867  0.54962036    -0.09000
C698        C  0.98333768  0.27298160  0.54763009     0.29880
F699        F  0.96859049  0.27088024  0.56634169    -0.19520
H700        H  0.96369656  0.24727452  0.52683425     0.18240
H701        H  0.03490567  0.29946623  0.53123855     0.18250
F702        F  0.03047605  0.27663407  0.49175140    -0.19510
C703        C  0.98942411  0.28485820  0.46115508    -0.20940
C704        C  0.99031887  0.25929679  0.46089166    -0.08990
C705        C  0.98984343  0.24739506  0.43836954     0.29870
C706        C  0.99284825  0.26046886  0.41755246    -0.20940
C707        C  0.99488971  0.28564276  0.41854119    -0.09000
C708        C  0.99204554  0.29785466  0.44027688     0.29880
F709        F  0.99347962  0.32234453  0.44153596    -0.19520
H710        H  0.98735566  0.29511527  0.47748281     0.18240
H711        H  0.99494797  0.25083386  0.40080467     0.18250
F712        F  0.98896288  0.22291623  0.43666092    -0.19510
C713        C  0.04000537  0.06856869  0.56056493    -0.20940
C714        C  0.03899357  0.04773704  0.57434246    -0.08990
C715        C  0.05540599  0.04475278  0.59301942     0.29870
C716        C  0.07229856  0.06262682  0.59810060    -0.20940
C717        C  0.07283929  0.08386896  0.58492397    -0.09000
C718        C  0.05672540  0.08662506  0.56582896     0.29880
F719        F  0.05762319  0.10627872  0.55171924    -0.19520
H720        H  0.02758179  0.07104098  0.54599943     0.18240
H721        H  0.08500377  0.05991039  0.61235842     0.18250
F722        F  0.05541569  0.02428883  0.60601941    -0.19510
C723        C  0.05804859  0.94573815  0.55294047    -0.20940
C724        C  0.03695040  0.94379019  0.56553453    -0.08990
C725        C  0.03406864  0.92493298  0.58172881     0.29870
C726        C  0.05244656  0.90893491  0.58604655    -0.20940
C727        C  0.07407115  0.91163788  0.57455363    -0.09000
C728        C  0.07660651  0.92982761  0.55743907     0.29880
F729        F  0.09674748  0.93204413  0.54478303    -0.19520
H730        H  0.06048541  0.96012290  0.54033214     0.18240
H731        H  0.04996424  0.89468689  0.59878711     0.18250
F732        F  0.01351069  0.92216043  0.59360350    -0.19510
C733        C  0.91857843  0.04715186  0.58273019    -0.20940
C734        C  0.93663029  0.04953706  0.56603366    -0.08990
C735        C  0.93840752  0.07086363  0.55296945     0.29870
C736        C  0.92281967  0.08988637  0.55739372    -0.20940
C737        C  0.90503259  0.08764711  0.57452679    -0.09000
C738        C  0.90274525  0.06588519  0.58678197     0.29880
F739        F  0.88560581  0.06296048  0.60317494    -0.19520
H740        H  0.91690624  0.03077093  0.59289574     0.18240
H741        H  0.92454663  0.10626338  0.54725664     0.18250
F742        F  0.95576399  0.07371760  0.53677532    -0.19510
C743        C  0.91336484  0.94828203  0.55215252    -0.20940
C744        C  0.93717607  0.94349680  0.55682659    -0.08990
C745        C  0.94375142  0.92095806  0.56559140     0.29870
C746        C  0.92655798  0.90390921  0.57112187    -0.20940
C747        C  0.90242397  0.90892162  0.56782562    -0.09000
C748        C  0.89601734  0.93109189  0.55739156     0.29880
F749        F  0.87319088  0.93651113  0.55239434    -0.19520
H750        H  0.90811620  0.96579156  0.54562059     0.18240
H751        H  0.93223812  0.88709667  0.57883401     0.18250
F752        F  0.96683898  0.91598505  0.57001884    -0.19510
C753        C  0.20443993  0.01024103  0.50621112    -0.20940
C754        C  0.22084965  0.01173960  0.48755129    -0.08990
C755        C  0.21612931  0.02932991  0.46987384     0.29870
C756        C  0.20006742  0.04804337  0.47426174    -0.20940
C757        C  0.18750806  0.04893121  0.49550079    -0.09000
C758        C  0.18846856  0.02889597  0.51055138     0.29880
F759        F  0.17494110  0.02799437  0.53028501    -0.19520
H760        H  0.20590651  0.99599341  0.51912423     0.18240
H761        H  0.19845330  0.06253335  0.46162993     0.18250
F762        F  0.22673101  0.02891841  0.44840038    -0.19510
C763        C  0.23895648  0.95192632  0.50625032    -0.20940
C764        C  0.23286260  0.96836182  0.48826087    -0.08990
C765        C  0.21532864  0.96054500  0.47141929     0.29870
C766        C  0.20330752  0.93835738  0.47395194    -0.20940
C767        C  0.20903006  0.92298607  0.49273705    -0.09000
C768        C  0.22816278  0.92940373  0.50774278     0.29880
F769        F  0.23600741  0.91424374  0.52482978    -0.19520
H770        H  0.25153531  0.95614405  0.52018516     0.18240
H771        H  0.18878950  0.93381700  0.46194185     0.18250
F772        F  0.20876541  0.97504226  0.45329014    -0.19510
C773        C  0.25326930  0.01893768  0.52752307    -0.20940
C774        C  0.25882688  0.00042071  0.51084505    -0.08990
C775        C  0.28081820  0.98854195  0.51441518     0.29870
C776        C  0.29522986  0.99377099  0.53441966    -0.20940
C777        C  0.28878886  0.01167618  0.55094788    -0.09000
C778        C  0.26754863  0.02403714  0.54731174     0.29880
F779        F  0.26048253  0.04145913  0.56289065    -0.19520
H780        H  0.23839870  0.03071434  0.52532427     0.18240
H781        H  0.31186177  0.98442351  0.53651140     0.18250
F782        F  0.28834417  0.97165208  0.49851702    -0.19510
C783        C  0.26388933  0.98200079  0.44864129    -0.20940
C784        C  0.25932742  0.99942403  0.46673218    -0.08990
C785        C  0.27118571  0.02197786  0.46538049     0.29870
C786        C  0.28534490  0.02734630  0.44618219    -0.20940
C787        C  0.28834415  0.01073172  0.42741783    -0.09000
C788        C  0.27805322  0.98766779  0.42909494     0.29880
F789        F  0.28090067  0.97093225  0.41149561    -0.19520
H790        H  0.25637458  0.96403804  0.44915595     0.18240
H791        H  0.29372566  0.04497865  0.44595583     0.18250
F792        F  0.26815722  0.03955818  0.48215563    -0.19510
C793        C  0.42457480  0.11014315  0.45450317    -0.20940
C794        C  0.44231076  0.12792082  0.45348826    -0.08990
C795        C  0.44174798  0.14468657  0.43495216     0.29870
C796        C  0.42412964  0.14301341  0.41727897    -0.20940
C797        C  0.40655172  0.12506064  0.41821539    -0.09000
C798        C  0.40674920  0.10876675  0.43717422     0.29880
F799        F  0.39062366  0.09054393  0.43819727    -0.19520
H800        H  0.42473460  0.09700317  0.46858683     0.18240
H801        H  0.42445318  0.15542164  0.40257902     0.18250
F802        F  0.45893017  0.16177252  0.43317651    -0.19510
C803        C  0.57928795  0.14155483  0.42788254    -0.20940
C804        C  0.57774253  0.12310007  0.41059257    -0.08990
C805        C  0.55956754  0.10569824  0.41187503     0.29870
C806        C  0.54332833  0.10675735  0.43030358    -0.20940
C807        C  0.54471710  0.12529780  0.44756140    -0.09000
C808        C  0.56272911  0.14288382  0.44611099     0.29880
F809        F  0.56490581  0.16075842  0.46281108    -0.19520
H810        H  0.59345314  0.15479705  0.42735212     0.18240
H811        H  0.52964944  0.09300585  0.43111133     0.18250
F812        F  0.55813489  0.08701449  0.39597078    -0.19510
C813        C  0.55007892  0.10400807  0.56786386    -0.20940
C814        C  0.55081074  0.12305847  0.55174582    -0.08990
C815        C  0.56960301  0.13983051  0.55315482     0.29870
C816        C  0.58762902  0.13712449  0.57021535    -0.20940
C817        C  0.58671698  0.11810793  0.58637895    -0.09000
C818        C  0.56772487  0.10158370  0.58511323     0.29880
F819        F  0.56671052  0.08245932  0.59991055    -0.19520
H820        H  0.53576270  0.09089699  0.56708945     0.18240
H821        H  0.60236207  0.14972955  0.57073456     0.18250
F822        F  0.57102364  0.15817199  0.53749140    -0.19510
C823        C  0.41621405  0.14308605  0.57796758    -0.20940
C824        C  0.41679482  0.12381744  0.59386963    -0.08990
C825        C  0.43466424  0.10637799  0.59179929     0.29870
C826        C  0.45114291  0.10787996  0.57364873    -0.20940
C827        C  0.45032689  0.12686751  0.55743106    -0.09000
C828        C  0.43304432  0.14483618  0.56003216     0.29880
F829        F  0.43155656  0.16324900  0.54444095    -0.19520
H830        H  0.40228983  0.15638067  0.57904501     0.18240
H831        H  0.46434167  0.09387739  0.57199283     0.18250
F832        F  0.43525679  0.08694418  0.60622370    -0.19510
C833        C  0.13473322  0.55370464  0.43035585    -0.20940
C834        C  0.11812041  0.55419644  0.44870097    -0.08990
C835        C  0.10127962  0.57272096  0.44941741     0.29870
C836        C  0.10095811  0.59027639  0.43188480    -0.20940
C837        C  0.11703323  0.58932903  0.41306984    -0.09000
C838        C  0.13396278  0.57091704  0.41241023     0.29880
F839        F  0.14954725  0.56947653  0.39430536    -0.19520
H840        H  0.14779208  0.53950611  0.42949354     0.18240
H841        H  0.08749847  0.60408860  0.43252240     0.18250
F842        F  0.08517039  0.57388767  0.46708578    -0.19510
C843        C  0.09787144  0.43070217  0.44853396    -0.20940
C844        C  0.11637922  0.44764255  0.44764696    -0.08990
C845        C  0.13291088  0.44591750  0.42924220     0.29870
C846        C  0.13034273  0.42790485  0.41157018    -0.20940
C847        C  0.11172694  0.41106690  0.41249579    -0.09000
C848        C  0.09560424  0.41248139  0.43127941     0.29880
F849        F  0.07689712  0.39704946  0.43230959    -0.19520
H850        H  0.08495530  0.43169925  0.46257812     0.18240
H851        H  0.14269507  0.42723475  0.39702012     0.18250
F852        F  0.15080184  0.46225757  0.42772726    -0.19510
C853        C  0.13690076  0.56724798  0.55831425    -0.20940
C854        C  0.11658510  0.55371408  0.55176961    -0.08990
C855        C  0.09512539  0.55871553  0.56326405     0.29870
C856        C  0.09407950  0.57685227  0.58058781    -0.20940
C857        C  0.11421999  0.59044916  0.58691451    -0.09000
C858        C  0.13570955  0.58562593  0.57573374     0.29880
F859        F  0.15539322  0.59863301  0.58162748    -0.19520
H860        H  0.15360609  0.56382709  0.54974643     0.18240
H861        H  0.07734148  0.58045895  0.58907325     0.18250
F862        F  0.07503782  0.54608114  0.55795326    -0.19510
C863        C  0.09688760  0.43197727  0.54874105    -0.20940
C864        C  0.11671190  0.44735148  0.54852200    -0.08990
C865        C  0.13538825  0.44350225  0.56480862     0.29870
C866        C  0.13390261  0.42477888  0.58122635    -0.20940
C867        C  0.11410787  0.40942783  0.58118716    -0.09000
C868        C  0.09559104  0.41315178  0.56481099     0.29880
F869        F  0.07583129  0.39908331  0.56491099    -0.19520
H870        H  0.08230108  0.43449946  0.53638699     0.18240
H871        H  0.14808524  0.42234299  0.59405945     0.18250
F872        F  0.15466781  0.45823311  0.56537976    -0.19510
C873        C  0.47739804  0.04529511  0.19978726    -0.20940
C874        C  0.49759540  0.04505288  0.18571968    -0.08990
C875        C  0.51241996  0.02482086  0.18646300     0.29870
C876        C  0.50893181  0.00699517  0.20336969    -0.20940
C877        C  0.49140398  0.00952775  0.22092334    -0.09000
C878        C  0.47387372  0.02744566  0.21684685     0.29880
F879        F  0.45333384  0.02817755  0.22895726    -0.19520
H880        H  0.46495477  0.06001960  0.19849130     0.18240
H881        H  0.52167598  0.99252509  0.20445249     0.18250
F882        F  0.53113559  0.02292586  0.17169945    -0.19510
C883        C  0.51112246  0.95010469  0.23887250    -0.20940
C884        C  0.49283332  0.96646555  0.23340049    -0.08990
C885        C  0.47593020  0.95875058  0.21589895     0.29870
C886        C  0.47909240  0.93720945  0.20274182    -0.20940
C887        C  0.49857974  0.92237828  0.20731255    -0.09000
C888        C  0.51340102  0.92821828  0.22675444     0.29880
F889        F  0.53113402  0.91327921  0.23345701    -0.19520
H890        H  0.52486386  0.95405451  0.25170587     0.18240
H891        H  0.46710442  0.93293959  0.18809772     0.18250
F892        F  0.45737016  0.97301819  0.21013103    -0.19510
C893        C  0.45406448  0.98129330  0.26529336    -0.20940
C894        C  0.47231244  0.99815776  0.26057814    -0.08990
C895        C  0.47172101  0.02067376  0.27287366     0.29870
C896        C  0.45315354  0.02650746  0.28773067    -0.20940
C897        C  0.43411073  0.01056111  0.29080219    -0.09000
C898        C  0.43502149  0.98752755  0.27996457     0.29880
F899        F  0.41716903  0.97136644  0.28272863    -0.19520
H900        H  0.45397800  0.96340120  0.25736702     0.18240
H901        H  0.45363714  0.04404365  0.29649921     0.18250
F902        F  0.48859961  0.03781882  0.26959918    -0.19510
C903        C  0.53273569  0.01655470  0.25115440    -0.20940
C904        C  0.51618477  0.99875729  0.25811401    -0.08990
C905        C  0.52059144  0.98762102  0.28038264     0.29870
C906        C  0.54112582  0.99298279  0.29382731    -0.20940
C907        C  0.55743288  0.01018179  0.28599860    -0.09000
C908        C  0.55311013  0.02163884  0.26437611     0.29880
F909        F  0.56849724  0.03834139  0.25603289    -0.19520
H910        H  0.53007275  0.02779566  0.23596031     0.18240
H911        H  0.54378761  0.98439546  0.31081512     0.18250
F912        F  0.50497705  0.97138650  0.28912940    -0.19510
C913        C  0.63286194  0.05949551  0.06229230    -0.20940
C914        C  0.61754875  0.05795437  0.04247847    -0.08990
C915        C  0.60048493  0.07596993  0.03917971     0.29870
C916        C  0.59833328  0.09474367  0.05581003    -0.20940
C917        C  0.61278870  0.09565202  0.07628718    -0.09000
C918        C  0.63027803  0.07800963  0.07930709     0.29880
F919        F  0.64434750  0.07830731  0.09903031    -0.19520
H920        H  0.64610179  0.04576059  0.06513831     0.18240
H921        H  0.58442708  0.10783319  0.05326042     0.18250
F922        F  0.58563305  0.07526184  0.02002616    -0.19510
C923        C  0.63668618  0.08360918  0.92023502    -0.20940
C924        C  0.61919241  0.08126746  0.90244639    -0.08990
C925        C  0.60273234  0.06214229  0.90345368     0.29870
C926        C  0.60364390  0.04591417  0.92213038    -0.20940
C927        C  0.62106641  0.04822600  0.93998681    -0.09000
C928        C  0.63785912  0.06702675  0.93875927     0.29880
F929        F  0.65465478  0.07004706  0.95600637    -0.19520
H930        H  0.64919705  0.09850289  0.91993996     0.18240
H931        H  0.59052081  0.03159025  0.92274810     0.18250
F932        F  0.58492063  0.05987975  0.88715829    -0.19510
C933        C  0.63366091  0.93244851  0.04981832    -0.20940
C934        C  0.61732585  0.95146250  0.04918220    -0.08990
C935        C  0.59901507  0.95214008  0.06583508     0.29870
C936        C  0.59684875  0.93384467  0.08244068    -0.20940
C937        C  0.61252967  0.91430610  0.08241018    -0.09000
C938        C  0.63106712  0.91374672  0.06608688     0.29880
F939        F  0.64632208  0.89493292  0.06562249    -0.19520
H940        H  0.64779385  0.93152111  0.03702926     0.18240
H941        H  0.58222170  0.93439748  0.09468509     0.18250
F942        F  0.58301795  0.97031738  0.06588340    -0.19510
C943        C  0.60329746  0.92679052  0.94705273    -0.20940
C944        C  0.62066400  0.94494059  0.94620077    -0.08990
C945        C  0.63660842  0.94502759  0.92720892     0.29870
C946        C  0.63444722  0.92772545  0.90886516    -0.20940
C947        C  0.61684293  0.90980498  0.90960520    -0.09000
C948        C  0.60146856  0.90923599  0.92905851     0.29880
F949        F  0.58370588  0.89266770  0.92995742    -0.19520
H950        H  0.59079763  0.92648473  0.96148957     0.18240
H951        H  0.64617542  0.92859358  0.89382097     0.18250
F952        F  0.65329656  0.96264815  0.92564669    -0.19510
C953        C  0.48225238  0.20204750  0.01457942    -0.20940
C954        C  0.48561057  0.22742921  0.01538947    -0.08990
C955        C  0.48410665  0.23906049  0.03801440     0.29870
C956        C  0.48418016  0.22559152  0.05880778    -0.20940
C957        C  0.48446740  0.20033398  0.05774368    -0.09000
C958        C  0.48209106  0.18861267  0.03553785     0.29880
F959        F  0.48193132  0.16411334  0.03400182    -0.19520
H960        H  0.48099209  0.19224191  0.99785270     0.18240
H961        H  0.48588272  0.23494880  0.07582026     0.18250
F962        F  0.48570541  0.26347251  0.04023053    -0.19510
C963        C  0.48268025  0.23142335  0.94843202    -0.20940
C964        C  0.49503351  0.22717841  0.97009126    -0.08990
C965        C  0.51321823  0.20969930  0.96948223     0.29870
C966        C  0.51862376  0.19730712  0.94855223    -0.20940
C967        C  0.50642024  0.20178744  0.92730875    -0.09000
C968        C  0.48803098  0.21859905  0.92744125     0.29880
F969        F  0.47631402  0.22381170  0.90697904    -0.19520
H970        H  0.46946911  0.24534072  0.94714118     0.18240
H971        H  0.53293823  0.18440495  0.94886775     0.18250
F972        F  0.52635653  0.20476527  0.98909282    -0.19510
C973        C  0.52241496  0.27454101  0.98035483    -0.20940
C974        C  0.51548023  0.25663222  0.99670609    -0.08990
C975        C  0.53247207  0.25056713  0.01446991     0.29870
C976        C  0.55309808  0.26406087  0.01764392    -0.20940
C977        C  0.55824260  0.28386900  0.00338425    -0.09000
C978        C  0.54312884  0.28848267  0.98397742     0.29880
F979        F  0.54770195  0.30697585  0.96913929    -0.19520
H980        H  0.51101768  0.27858477  0.96534684     0.18240
H981        H  0.56519772  0.25882822  0.03168176     0.18250
F982        F  0.53033995  0.23091121  0.02839288    -0.19510
C983        C  0.47091164  0.28495272  0.99558378    -0.20940
C984        C  0.46960865  0.25973920  0.99089304    -0.08990
C985        C  0.44671791  0.24941162  0.98762752     0.29870
C986        C  0.42638443  0.26337181  0.99022656    -0.20940
C987        C  0.42811206  0.28798677  0.99589993    -0.09000
C988        C  0.45048484  0.29885097  0.99785562     0.29880
F989        F  0.45258755  0.32252043  0.00432604    -0.19520
H990        H  0.48741860  0.29400238  0.99967626     0.18240
H991        H  0.40921711  0.25458482  0.98936458     0.18250
F992        F  0.44394506  0.22529878  0.98361136    -0.19510
C993        C  0.43262137  0.43885014  0.13827491    -0.20940
C994        C  0.45140715  0.43892664  0.12220402    -0.08990
C995        C  0.45349969  0.41977774  0.10568613     0.29870
C996        C  0.43676167  0.40120089  0.10489341    -0.20940
C997        C  0.41733618  0.40158447  0.12018637    -0.09000
C998        C  0.41543780  0.42048708  0.13703868     0.29880
F999        F  0.39676382  0.42141109  0.15192418    -0.19520
H1000       H  0.43072177  0.45352072  0.15106899     0.18240
H1001       H  0.43844316  0.38710083  0.09146317     0.18250
F1002       F  0.47164115  0.41914061  0.09010568    -0.19510
C1003       C  0.42920788  0.54467846  0.10333442    -0.20940
C1004       C  0.44716996  0.54562573  0.12072009    -0.08990
C1005       C  0.44772696  0.56488107  0.13738224     0.29870
C1006       C  0.43087065  0.58321617  0.13612707    -0.20940
C1007       C  0.41299272  0.58223436  0.11867871    -0.09000
C1008       C  0.41216210  0.56270194  0.10235310     0.29880
F1009       F  0.39565658  0.56169026  0.08462696    -0.19520
H1010       H  0.42851954  0.53006263  0.09028878     0.18240
H1011       H  0.43197725  0.59839349  0.14849966     0.18250
F1012       F  0.46521482  0.56662629  0.15406795    -0.19510
C1013       C  0.56831181  0.55052922  0.13040814    -0.20940
C1014       C  0.54837649  0.54952070  0.11527838    -0.08990
C1015       C  0.54548395  0.56719544  0.09784519     0.29870
C1016       C  0.56238794  0.58539248  0.09547195    -0.20940
C1017       C  0.58271476  0.58599741  0.11004399    -0.09000
C1018       C  0.58561807  0.56842631  0.12755287     0.29880
F1019       F  0.60525691  0.56845771  0.14165058    -0.19520
H1020       H  0.57087241  0.53696371  0.14385661     0.18240
H1021       H  0.56000476  0.59850431  0.08155911     0.18250
F1022       F  0.52630922  0.56688787  0.08307826    -0.19510
C1023       C  0.55103209  0.42638470  0.09898155    -0.20940
C1024       C  0.55133315  0.44315951  0.11792528    -0.08990
C1025       C  0.56885515  0.44143376  0.13580508     0.29870
C1026       C  0.58596451  0.42332413  0.13442524    -0.20940
C1027       C  0.58541021  0.40645770  0.11558534    -0.09000
C1028       C  0.56780075  0.40812493  0.09782227     0.29880
F1029       F  0.56733670  0.39267561  0.07882038    -0.19520
H1030       H  0.53770033  0.42735073  0.08503543     0.18240
H1031       H  0.59972273  0.42252513  0.14794762     0.18250
F1032       F  0.56991698  0.45767879  0.15412318    -0.19510
C1033       C  0.03259451  0.47876650  0.22216520    -0.20940
C1034       C  0.01274547  0.49434320  0.22134097    -0.08990
C1035       C  0.01408166  0.51426026  0.20585601     0.29870
C1036       C  0.03414270  0.51848799  0.19241153    -0.20940
C1037       C  0.05381380  0.50334405  0.19386866    -0.09000
C1038       C  0.05270033  0.48304107  0.20838732     0.29880
F1039       F  0.07173558  0.46844540  0.21074638    -0.19520
H1040       H  0.03362483  0.46413690  0.23457572     0.18240
H1041       H  0.03456808  0.53429191  0.18129271     0.18250
F1042       F  0.99623941  0.53046456  0.20443033    -0.19510
C1043       C  0.96553488  0.48757435  0.20087577    -0.20940
C1044       C  0.96743342  0.49296687  0.22554287    -0.08990
C1045       C  0.94609793  0.49663764  0.23795894     0.29870
C1046       C  0.92471218  0.49929697  0.22559326    -0.20940
C1047       C  0.92365055  0.49653101  0.20082952    -0.09000
C1048       C  0.94398796  0.48956721  0.18864233     0.29880
F1049       F  0.94341608  0.48639502  0.16466281    -0.19520
H1050       H  0.98077371  0.48228334  0.19068474     0.18240
H1051       H  0.90903895  0.50434940  0.23530881     0.18250
F1052       F  0.94606449  0.49932186  0.26196184    -0.19510
C1053       C  0.99272323  0.44675361  0.24108274    -0.20940
C1054       C  0.99112433  0.46915979  0.25335723    -0.08990
C1055       C  0.98816368  0.46843938  0.27842190     0.29870
C1056       C  0.99140082  0.44691056  0.29059281    -0.20940
C1057       C  0.99682072  0.42560697  0.27827123    -0.09000
C1058       C  0.99651646  0.42534285  0.25339561     0.29880
F1059       F  0.00126468  0.40469505  0.24107970    -0.19520
H1060       H  0.99317488  0.44617804  0.22184009     0.18240
H1061       H  0.99096178  0.44715555  0.30985478     0.18250
F1062       F  0.98237418  0.48826670  0.29152664    -0.19510
C1063       C  0.98215701  0.53668216  0.25472562    -0.20940
C1064       C  0.99612252  0.51549322  0.25532233    -0.08990
C1065       C  0.01682192  0.51628099  0.26976933     0.29870
C1066       C  0.02286948  0.53679982  0.28310528    -0.20940
C1067       C  0.00903244  0.55766739  0.28235242    -0.09000
C1068       C  0.98834038  0.55735964  0.26832666     0.29880
F1069       F  0.97483723  0.57744650  0.26665148    -0.19520
H1070       H  0.96700658  0.53797527  0.24297887     0.18240
H1071       H  0.03877516  0.53631258  0.29398270     0.18250
F1072       F  0.03151340  0.49704432  0.27099113    -0.19510
C1073       C  0.04986414  0.63853560  0.06689472    -0.20940
C1074       C  0.04842123  0.62186489  0.04781071    -0.08990
C1075       C  0.06609849  0.60433891  0.04527171     0.29870
C1076       C  0.08473832  0.60344431  0.06166987    -0.20940
C1077       C  0.08585693  0.61966147  0.08112685    -0.09000
C1078       C  0.06825151  0.63720744  0.08368824     0.29880
F1079       F  0.06875908  0.65285574  0.10251205    -0.19520
H1080       H  0.03636970  0.65213523  0.06917361     0.18240
H1081       H  0.09787048  0.58944015  0.05960380     0.18250
F1082       F  0.06546143  0.58815394  0.02687177    -0.19510
C1083       C  0.03915424  0.60857028  0.92698730    -0.20940
C1084       C  0.04106197  0.62640212  0.94491763    -0.09590
C1085       C  0.05963143  0.64340054  0.94420102     0.29870
C1086       C  0.07656266  0.64179415  0.92629406    -0.20940
C1087       C  0.07478864  0.62367992  0.90862029    -0.09000
C1088       C  0.05573174  0.60722876  0.90893252     0.29880
F1089       F  0.05394903  0.58883053  0.89273445    -0.19520
H1090       H  0.02498684  0.59530058  0.92720206     0.18240
H1091       H  0.09139200  0.65428376  0.92653625     0.18250
F1092       F  0.06218227  0.66062130  0.96150292    -0.19510
C1093       C  0.94145628  0.63557676  0.07033151    -0.20940
C1094       C  0.94258566  0.61985094  0.05053156    -0.08990
C1095       C  0.92486250  0.60220090  0.04700975     0.29870
C1096       C  0.90637871  0.60033342  0.06299526    -0.20940
C1097       C  0.90540103  0.61565853  0.08307003    -0.09000
C1098       C  0.92318601  0.63321743  0.08678660     0.29880
F1099       F  0.92281773  0.64804617  0.10622178    -0.19520
H1100       H  0.95498976  0.64926554  0.07331408     0.18240
H1101       H  0.89312254  0.58636710  0.05998380     0.18250
F1102       F  0.92518339  0.58695522  0.02785753    -0.19510
C1103       C  0.93876951  0.64247710  0.93232345    -0.20940
C1104       C  0.93886573  0.62582218  0.95089902    -0.08990
C1105       C  0.92038087  0.60887075  0.95238001     0.29870
C1106       C  0.90233278  0.60834026  0.93528608    -0.20940
C1107       C  0.90268719  0.62430012  0.91612431    -0.09000
C1108       C  0.92099990  0.64147442  0.91477937     0.29880
F1109       F  0.92188362  0.65693970  0.89631916    -0.19520
H1110       H  0.95295583  0.65559787  0.93088970     0.18240
H1111       H  0.88863133  0.59466357  0.93647365     0.18250
F1112       F  0.91984010  0.59271336  0.97029253    -0.19510
C1113       C  0.21874781  0.47665098  0.02841517    -0.20940
C1114       C  0.22233934  0.49477361  0.01116600    -0.08990
C1115       C  0.20536449  0.51348289  0.01029043     0.29870
C1116       C  0.18940310  0.51674328  0.02875733    -0.20940
C1117       C  0.18910089  0.50106180  0.04810177    -0.09000
C1118       C  0.20272224  0.48005326  0.04701046     0.29880
F1119       F  0.20209762  0.46388496  0.06488770    -0.19520
H1120       H  0.22903287  0.46030941  0.02860559     0.18240
H1121       H  0.17832383  0.53263200  0.02873136     0.18250
F1122       F  0.20625926  0.53060907  0.99330813    -0.19510
C1123       C  0.22358849  0.51792349  0.93202878    -0.20940
C1124       C  0.20439259  0.50254935  0.92713516    -0.08990
C1125       C  0.20116303  0.48233321  0.94150474     0.29870
C1126       C  0.21574596  0.47913226  0.96165355    -0.20940
C1127       C  0.23341774  0.49636558  0.96847320    -0.09000
C1128       C  0.23722137  0.51574288  0.95255561     0.29880
F1129       F  0.25201730  0.53454712  0.95717536    -0.19520
H1130       H  0.22685867  0.53336732  0.92089569     0.18240
H1131       H  0.21204033  0.46404400  0.97309782     0.18250
F1132       F  0.18280615  0.46687610  0.93737470    -0.19510
C1133       C  0.25494048  0.53464582  0.01874593    -0.20940
C1134       C  0.26036210  0.51790904  0.00033650    -0.08990
C1135       C  0.28245522  0.52117446  0.98893036     0.29870
C1136       C  0.29683922  0.54142178  0.99411590    -0.20940
C1137       C  0.29025188  0.55839621  0.01151672    -0.09000
C1138       C  0.26912802  0.55472903  0.02373874     0.29880
F1139       F  0.26190948  0.57070214  0.04067748    -0.19520
H1140       H  0.23999760  0.53251655  0.03016612     0.18240
H1141       H  0.31339557  0.54352375  0.98488928     0.18250
F1142       F  0.28967521  0.50521737  0.97198779    -0.19510
C1143       C  0.27189030  0.47213069  0.02099474    -0.20940
C1144       C  0.26043401  0.47323934  0.99857285    -0.08990
C1145       C  0.26599598  0.45491323  0.98157959     0.29870
C1146       C  0.28051548  0.43543159  0.98792500    -0.20940
C1147       C  0.29044880  0.43403774  0.01085698    -0.09000
C1148       C  0.28667641  0.45322515  0.02698070     0.29880
F1149       F  0.29770449  0.45428351  0.04853153    -0.19520
H1150       H  0.26911784  0.48615730  0.03430321     0.18240
H1151       H  0.28382429  0.42128360  0.97489307     0.18250
F1152       F  0.25821901  0.45565230  0.95873951    -0.19510
C1153       C  0.03403961  0.74737321  0.50563529    -0.20940
C1154       C  0.01524883  0.75626794  0.49150705    -0.08990
C1155       C  0.02099917  0.77518871  0.47572463     0.29870
C1156       C  0.04296572  0.78735604  0.47753805    -0.20940
C1157       C  0.06025331  0.77984884  0.49389803    -0.09000
C1158       C  0.05595486  0.75881013  0.50680335     0.29880
F1159       F  0.07302558  0.74921714  0.52090227    -0.19520
H1160       H  0.03217453  0.73112413  0.51587302     0.18240
H1161       H  0.04613360  0.80303395  0.46671669     0.18250
F1162       F  0.00522145  0.78239692  0.45897117    -0.19510
C1163       C  0.96953875  0.78402396  0.49531528    -0.20940
C1164       C  0.96873537  0.75884223  0.49049510    -0.08990
C1165       C  0.94610290  0.74777023  0.48826194     0.29870
C1166       C  0.92549939  0.76121841  0.49071275    -0.20940
C1167       C  0.92660477  0.78605102  0.49537894    -0.09000
C1168       C  0.94873927  0.79749794  0.49740031     0.29880
F1169       F  0.95024649  0.82136497  0.50322303    -0.19520
H1170       H  0.98604794  0.79333843  0.49889697     0.18240
H1171       H  0.90853987  0.75200955  0.48985553     0.18250
F1172       F  0.94387385  0.72359779  0.48432888    -0.19510
C1173       C  0.00973579  0.70817252  0.46707136    -0.20940
C1174       C  0.99268459  0.72669444  0.46756001    -0.08990
C1175       C  0.98103682  0.73205080  0.44566236     0.29870
C1176       C  0.98615150  0.71899841  0.42478318    -0.20940
C1177       C  0.00344057  0.70108980  0.42483422    -0.09000
C1178       C  0.01484486  0.69544850  0.44626875     0.29880
F1179       F  0.03172095  0.67813402  0.44694253    -0.19520
H1180       H  0.01982494  0.70390914  0.48290090     0.18240
H1181       H  0.97778486  0.72407895  0.40818542     0.18250
F1182       F  0.96629688  0.75111823  0.44347354    -0.19510
C1183       C  0.98306728  0.70239239  0.51374105    -0.20940
C1184       C  0.98790351  0.72754668  0.51373578    -0.08990
C1185       C  0.99050578  0.73932424  0.53622824     0.29870
C1186       C  0.99255184  0.72600251  0.55703835    -0.20940
C1187       C  0.99060573  0.70078483  0.55639760    -0.09000
C1188       C  0.98463197  0.68913558  0.53479359     0.29880
F1189       F  0.98221696  0.66472797  0.53369098    -0.19520
H1190       H  0.97886696  0.69262041  0.49743805     0.18240
H1191       H  0.99691423  0.73535129  0.57360744     0.18250
F1192       F  0.99353669  0.76364748  0.53788835    -0.19510
C1193       C  0.77199396  0.02292525  0.47906648    -0.20940
C1194       C  0.75358459  0.01774468  0.49513288    -0.08990
C1195       C  0.74546242  0.03744754  0.50928576     0.29870
C1196       C  0.75753929  0.05939386  0.50999602    -0.20940
C1197       C  0.77785322  0.06315187  0.49655433    -0.09000
C1198       C  0.78451794  0.04500661  0.48025310     0.29880
F1199       F  0.80355348  0.04809554  0.46617404    -0.19520
H1200       H  0.77733147  0.00941142  0.46612851     0.18240
H1201       H  0.75092198  0.07358486  0.52154603     0.18250
F1202       F  0.72540950  0.03627674  0.52219521    -0.19510
C1203       C  0.78110084  0.97117600  0.49710036    -0.20940
C1204       C  0.75644302  0.97033638  0.49248206    -0.08990
C1205       C  0.74581661  0.94720858  0.48918131     0.29870
C1206       C  0.75915154  0.92617025  0.49064605    -0.20940
C1207       C  0.78342185  0.92733656  0.49532380    -0.09000
C1208       C  0.79444868  0.94997184  0.49818095     0.29880
F1209       F  0.81776208  0.95149854  0.50406078    -0.19520
H1210       H  0.79011420  0.98792359  0.50151276     0.18240
H1211       H  0.75027890  0.90878741  0.48916196     0.18250
F1212       F  0.72217722  0.94486222  0.48537769    -0.19510
C1213       C  0.71580139  0.99060498  0.42886177    -0.20940
C1214       C  0.69720667  0.00701851  0.43049090    -0.08990
C1215       C  0.69172699  0.01719375  0.45266866     0.29870
C1216       C  0.70506074  0.01162312  0.47273445    -0.20940
C1217       C  0.72402883  0.99518973  0.47173773    -0.09000
C1218       C  0.72946884  0.98507060  0.44901498     0.29880
F1219       F  0.74901212  0.97149928  0.44547638    -0.19520
H1220       H  0.72077258  0.98332563  0.41165770     0.18240
H1221       H  0.70071067  0.02080526  0.48916592     0.18250
F1222       F  0.67384950  0.03329879  0.45483030    -0.19510
C1223       C  0.70227047  0.98290568  0.51839671    -0.20940
C1224       C  0.72666525  0.98870715  0.51765438    -0.08990
C1225       C  0.73881163  0.99132608  0.53978208     0.29870
C1226       C  0.72630831  0.99313039  0.56100328    -0.20940
C1227       C  0.70166537  0.99086760  0.56102189    -0.09000
C1228       C  0.68984295  0.98433526  0.53979981     0.29880
F1229       F  0.66599154  0.98156692  0.53937162    -0.19520
H1230       H  0.69238324  0.97838751  0.50236349     0.18240
H1231       H  0.73576096  0.99797062  0.57728199     0.18250
F1232       F  0.76253609  0.99506540  0.54068991    -0.19510
C1233       C  0.48064465  0.03714889  0.75500019    -0.20940
C1234       C  0.49516088  0.01630801  0.75559178    -0.08990
C1235       C  0.51550292  0.01750299  0.77055883     0.29870
C1236       C  0.52090057  0.03816212  0.78401748    -0.20940
C1237       C  0.50667896  0.05874296  0.78299289    -0.09000
C1238       C  0.48615212  0.05793065  0.76876541     0.29880
F1239       F  0.47230768  0.07775189  0.76686714    -0.19520
H1240       H  0.46571405  0.03826872  0.74296218     0.18240
H1241       H  0.53676923  0.03817887  0.79498929     0.18250
F1242       F  0.53074391  0.99871575  0.77179710    -0.19510
C1243       C  0.48812327  0.96989980  0.77798247    -0.20940
C1244       C  0.49091991  0.96993418  0.75298784    -0.08990
C1245       C  0.49214094  0.94712847  0.74125992     0.29870
C1246       C  0.49563455  0.92606766  0.75427551    -0.20940
C1247       C  0.49627102  0.92701195  0.77913828    -0.09000
C1248       C  0.49125059  0.94879808  0.79091728     0.29880
F1249       F  0.49118837  0.95003165  0.81504362    -0.19520
H1250       H  0.48447925  0.98631060  0.78789932     0.18240
H1251       H  0.49925450  0.90926107  0.74492538     0.18250
F1252       F  0.49231375  0.94542821  0.71718378    -0.19510
C1253       C  0.44662531  0.99672010  0.73746040    -0.20940
C1254       C  0.46778634  0.99389076  0.72465830    -0.08990
C1255       C  0.46557790  0.98975608  0.69968309     0.29870
C1256       C  0.44371134  0.99223311  0.68808379    -0.20940
C1257       C  0.42353936  0.99843470  0.70085849    -0.09000
C1258       C  0.42496697  0.99988842  0.72573178     0.29880
F1259       F  0.40555203  0.00535914  0.73863187    -0.19520
H1260       H  0.44717135  0.99822469  0.75668342     0.18240
H1261       H  0.44281372  0.99058164  0.66887337     0.18250
F1262       F  0.48417615  0.98309625  0.68615762    -0.19510
C1263       C  0.53296517  0.97962912  0.72289624    -0.20940
C1264       C  0.51348414  0.99565910  0.72202059    -0.08990
C1265       C  0.51575187  0.01615255  0.70738436     0.29870
C1266       C  0.53631786  0.02039007  0.69465945    -0.20940
C1267       C  0.55548311  0.00454850  0.69589870    -0.09000
C1268       C  0.55347960  0.98380687  0.70971994     0.29880
F1269       F  0.57199716  0.96850780  0.71189954    -0.19520
H1270       H  0.53327994  0.96450390  0.73475184     0.18240
H1271       H  0.53741771  0.03653128  0.68406607     0.18250
F1272       F  0.49816739  0.03263422  0.70584008    -0.19510
C1273       C  0.03285777  0.51263588  0.75225098    -0.20940
C1274       C  0.01414611  0.49725146  0.75927675    -0.08990
C1275       C  0.01614745  0.48741314  0.78251700     0.29870
C1276       C  0.03635930  0.49155987  0.79684644    -0.20940
C1277       C  0.05480232  0.50624561  0.78891717    -0.09000
C1278       C  0.05289616  0.51648164  0.76640013     0.29880
F1279       F  0.07041735  0.53081796  0.75803588    -0.19520
H1280       H  0.03250345  0.52267510  0.73622803     0.18240
H1281       H  0.03719836  0.48400207  0.81444906     0.18250
F1282       F  0.99876308  0.47312803  0.79118601    -0.19510
C1283       C  0.95066412  0.48189313  0.76249213    -0.20940
C1284       C  0.96992050  0.49808149  0.75972262    -0.08990
C1285       C  0.96953053  0.52001882  0.77307578     0.29870
C1286       C  0.95038820  0.52595775  0.78717830    -0.20940
C1287       C  0.93066743  0.51060888  0.78860865    -0.09000
C1288       C  0.93119133  0.48816138  0.77658132     0.29880
F1289       F  0.91256817  0.47266014  0.77763051    -0.19520
H1290       H  0.95016784  0.46449732  0.75354169     0.18240
H1291       H  0.95102650  0.54303694  0.79680807     0.18250
F1292       F  0.98738639  0.53645456  0.77173511    -0.19510
C1293       C  0.97450445  0.46106786  0.71344855    -0.20940
C1294       C  0.99057991  0.46647445  0.73249106    -0.08990
C1295       C  0.00717484  0.44814558  0.73817186     0.29870
C1296       C  0.00863923  0.42715133  0.72445791    -0.20940
C1297       C  0.99510544  0.42379660  0.70373432    -0.09000
C1298       C  0.97707840  0.44033439  0.69886036     0.29880
F1299       F  0.96342594  0.43770275  0.67897927    -0.19520
H1300       H  0.96115302  0.47407529  0.70856614     0.18240
H1301       H  0.02217316  0.41420801  0.72906306     0.18250
F1302       F  0.02355519  0.45019404  0.75573873    -0.19510
C1303       C  0.97435411  0.52951330  0.71928078    -0.20940
C1304       C  0.99097044  0.51049967  0.72168161    -0.08990
C1305       C  0.00791218  0.50827373  0.70339094     0.29870
C1306       C  0.01137231  0.52696974  0.68731881    -0.20940
C1307       C  0.99716228  0.54762363  0.68785059    -0.09000
C1308       C  0.97769941  0.54807757  0.70294508     0.29880
F1309       F  0.96304815  0.56739680  0.70334481    -0.19520
H1310       H  0.95916403  0.53106376  0.73057225     0.18240
H1311       H  0.02609365  0.52589152  0.67522253     0.18250
F1312       F  0.02322253  0.48949443  0.70293560    -0.19510
C1313       C  0.48919578  0.75090744  0.03086819    -0.20940
C1314       C  0.48885711  0.76272242  0.00869646    -0.08990
C1315       C  0.48353624  0.78776404  0.00901970     0.29870
C1316       C  0.48396481  0.80088913  0.03054025    -0.20940
C1317       C  0.48852547  0.78929531  0.05204330    -0.09000
C1318       C  0.48974699  0.76406967  0.05223676     0.29880
F1319       F  0.49389504  0.75237352  0.07289615    -0.19520
H1320       H  0.49175377  0.73156049  0.03158359     0.18240
H1321       H  0.48243428  0.82038545  0.03022419     0.18250
F1322       F  0.47842845  0.79991526  0.98888173    -0.19510
C1323       C  0.48477807  0.75705751  0.94159935    -0.20940
C1324       C  0.49713395  0.76255862  0.96313785    -0.08990
C1325       C  0.51472438  0.78089094  0.96249011     0.29870
C1326       C  0.51953701  0.79297564  0.94160626    -0.20940
C1327       C  0.50731067  0.78730024  0.92047998    -0.09000
C1328       C  0.48950831  0.76959435  0.92064882     0.29880
F1329       F  0.47777376  0.76333663  0.90025961    -0.19520
H1330       H  0.47208565  0.74241450  0.94040742     0.18240
H1331       H  0.53334199  0.80665248  0.94187442     0.18250
F1332       F  0.52763182  0.78718619  0.98209631    -0.19510
C1333       C  0.43011499  0.72364076  0.98532717    -0.20940
C1334       C  0.43289680  0.69990501  0.99290085    -0.08990
C1335       C  0.45564803  0.69038156  0.99506166     0.29870
C1336       C  0.47545395  0.70486644  0.99111381    -0.20940
C1337       C  0.47317040  0.72935398  0.98454332    -0.09000
C1338       C  0.44988288  0.73825993  0.98125882     0.29880
F1339       F  0.44617621  0.76180320  0.97604777    -0.19520
H1340       H  0.41263678  0.73146398  0.98433965     0.18240
H1341       H  0.49234122  0.69710766  0.99552969     0.18250
F1342       F  0.45875920  0.66765810  0.00326286    -0.19510
C1343       C  0.52514280  0.71610815  0.97191281    -0.20940
C1344       C  0.51883660  0.73445411  0.98851367    -0.08990
C1345       C  0.53641304  0.74138597  0.00563823     0.29870
C1346       C  0.55704112  0.72812419  0.00819549    -0.20940
C1347       C  0.56146465  0.70774757  0.99390306    -0.09000
C1348       C  0.54582083  0.70243296  0.97491564     0.29880
F1349       F  0.54970174  0.68333402  0.96010359    -0.19520
H1350       H  0.51315545  0.71134009  0.95740140     0.18240
H1351       H  0.56955982  0.73373610  0.02195926     0.18250
F1352       F  0.53461429  0.76140377  0.01970151    -0.19510
C1353       C  0.77945377  0.48234996  0.01562782    -0.20940
C1354       C  0.75692655  0.49309267  0.01316682    -0.08990
C1355       C  0.74603407  0.50136205  0.03436750     0.29870
C1356       C  0.75905682  0.50377931  0.05549278    -0.20940
C1357       C  0.78263545  0.49645418  0.05674092    -0.09000
C1358       C  0.79233343  0.48429930  0.03710795     0.29880
F1359       F  0.81489732  0.47619473  0.03800636    -0.19520
H1360       H  0.78781463  0.47376639  0.00055010     0.18240
H1361       H  0.75099126  0.51251700  0.07071471     0.18250
F1362       F  0.72337252  0.50919698  0.03440486    -0.19510
C1363       C  0.75346198  0.48604815  0.94457063    -0.20940
C1364       C  0.76092676  0.49550415  0.96703989    -0.08990
C1365       C  0.78197391  0.50964610  0.96766988     0.29870
C1366       C  0.79486520  0.51349900  0.94712678    -0.20940
C1367       C  0.78705776  0.50431671  0.92509633    -0.09000
C1368       C  0.76646768  0.49017624  0.92393096     0.29880
F1369       F  0.75790263  0.48204327  0.90260740    -0.19520
H1370       H  0.73684676  0.47640815  0.94261779     0.18240
H1371       H  0.81039829  0.52505890  0.94819968     0.18250
F1372       F  0.78971271  0.52112990  0.98778204    -0.19510
C1373       C  0.70397008  0.47462163  0.99743313    -0.20940
C1374       C  0.72708411  0.47293492  0.98824983    -0.08990
C1375       C  0.73580037  0.44936214  0.98343379     0.29870
C1376       C  0.72170798  0.42883463  0.98688290    -0.20940
C1377       C  0.69894685  0.43102474  0.99598397    -0.09000
C1378       C  0.69011042  0.45407007  0.00109502     0.29880
F1379       F  0.66859426  0.45660217  0.01123193    -0.19520
H1380       H  0.69675646  0.49176801  0.00304099     0.18240
H1381       H  0.72917736  0.41108195  0.98392705     0.18250
F1382       F  0.75845861  0.44590034  0.97663115    -0.19510
C1383       C  0.69769642  0.54498676  0.97393691    -0.20940
C1384       C  0.70573540  0.56397645  0.98880177    -0.08990
C1385       C  0.72817414  0.56227728  0.99943162     0.29870
C1386       C  0.74069660  0.54076684  0.99816867    -0.20940
C1387       C  0.73109834  0.51997558  0.98663426    -0.09000
C1388       C  0.71065512  0.52342072  0.97217532     0.29880
F1389       F  0.70230576  0.50554454  0.95750947    -0.19520
H1390       H  0.68073824  0.54621779  0.96491075     0.18240
H1391       H  0.75733636  0.54015883  0.00773252     0.18250
F1392       F  0.73737853  0.58104051  0.01244998    -0.19510
loop_ 
_geom_bond_atom_site_label_1 
_geom_bond_atom_site_label_2 
_geom_bond_distance 
_geom_bond_site_symmetry_2 
_ccdc_geom_bond_type 
C1         C1354   1.562   1_556  S
C1         C1364   1.554       .  S
C1         C1374   1.555       .  S
C1         C1387   1.562       .  S
C2         C1314   1.559   1_556  S
C2         C1324   1.554       .  S
C2         C1337   1.557       .  S
C2         C1344   1.568       .  S
C3         C1274   1.577   1_655  S
C3         C1284   1.558       .  S
C3         C1294   1.570       .  S
C3         C1304   1.576       .  S
C4         C1234   1.567   1_565  S
C4         C1244   1.556       .  S
C4         C1254   1.556       .  S
C4         C1264   1.563       .  S
C5         C1194   1.564   1_565  S
C5         C1204   1.553       .  S
C5         C1217   1.555       .  S
C5         C1224   1.563       .  S
C6         C1154   1.566   1_655  S
C6         C1164   1.552       .  S
C6         C1174   1.556       .  S
C6         C1184   1.567       .  S
C7         C1114   1.571   1_556  S
C7         C1127   1.566       .  S
C7         C1134   1.571   1_556  S
C7         C1144   1.559       .  S
O8          Cu16   1.992   1_455  S
O8           C18   1.276       .  A
O9          Cu16   1.992   1_554  S
O9           C19   1.276       .  A
O10         Cu16   1.995       .  S
O10          C20   1.277       .  A
O11         Cu16   2.005   1_454  S
O11          C21   1.278       .  A
O12         Cu17   2.004   1_455  S
O12          C21   1.277       .  A
O13         Cu17   2.013   1_556  S
O13          C20   1.278       .  A
O14         Cu17   2.019       .  S
O14          C19   1.279       .  A
O15         Cu17   2.017   1_456  S
O15          C18   1.279       .  A
Cu16        Cu17   2.374   1_556  S
C18        C1084   1.473       .  S
C19        C1094   1.472       .  S
C20        C1104   1.470       .  S
C21        C1074   1.473       .  S
N22          N23   1.323       .  A
N22          C26   1.354       .  A
N22         Cu30   2.106       .  S
N23          C24   1.336       .  A
N23         Cu29   2.057       .  S
C24          C25   1.380       .  A
C24          H27   1.081       .  S
C25        C1287   1.487       .  S
C25          C26   1.394       .  A
C26          H28   1.082       .  S
Cu29         N32   2.055       .  S
Cu30         N40   2.106       .  S
Cu31         N33   2.053       .  S
Cu31         N39   2.054       .  S
N32          N33   1.316       .  A
N32          C36   1.344       .  A
N33          C34   1.342       .  A
C34          C35   1.385       .  A
C34          H37   1.082       .  S
C35        C1107   1.474       .  S
C35          C36   1.385       .  A
C36          H38   1.082       .  S
N39          N40   1.324       .  A
N39          C43   1.337       .  A
N40          C41   1.353       .  A
C41          C42   1.390       .  A
C41          H44   1.082       .  S
C42        C1367   1.473       .  S
C42          C43   1.375       .  A
C43          H45   1.082       .  S
C46        C1034   1.565   1_655  S
C46        C1044   1.554       .  S
C46        C1054   1.553       .  S
C46        C1064   1.560       .  S
N47          N48   1.323       .  A
N47          C51   1.353       .  A
N47         Cu55   2.103       .  S
N48          C49   1.339       .  A
N48         Cu54   2.060       .  S
C49          C50   1.378       .  A
C49          H52   1.082       .  S
C50        C1357   1.479       .  S
C50          C51   1.391       .  A
C51          H53   1.082       .  S
Cu54         N57   2.059       .  S
Cu55         N65   2.104       .  S
Cu56         N58   2.058       .  S
Cu56         N64   2.059       .  S
N57          N58   1.317       .  A
N57          C61   1.342       .  A
N58          C59   1.345       .  A
C59          C60   1.385       .  A
C59          H62   1.082       .  S
C60        C1097   1.475       .  S
C60          C61   1.386       .  A
C61          H63   1.082       .  S
N64          N65   1.325       .  A
N64          C68   1.340       .  A
N65          C66   1.351       .  A
C66          C67   1.389       .  A
C66          H69   1.082       .  S
C67        C1047   1.472       .  S
C67          C68   1.376       .  A
C68          H70   1.082       .  S
N71          N72   1.325       .  A
N71          C75   1.355       .  A
N71         Cu79   2.110       .  S
N72          C73   1.335       .  A
N72         Cu78   2.051       .  S
C73          C74   1.375       .  A
C73          H76   1.082       .  S
C74        C1277   1.478       .  S
C74          C75   1.392       .  A
C75          H77   1.082       .  S
Cu78         N81   2.050       .  S
Cu79         N89   2.109       .  S
Cu80         N82   2.050       .  S
Cu80         N88   2.052       .  S
N81          N82   1.315       .  A
N81          C85   1.342       .  A
N82          C83   1.342       .  A
C83          C84   1.384       .  A
C83          H86   1.082       .  S
C84        C1087   1.472       .  S
C84          C85   1.386       .  A
C85          H87   1.082       .  S
N88          N89   1.323       .  A
N88          C92   1.333       .  A
N89          C90   1.357       .  A
C90          C91   1.395       .  A
C90          H93   1.082       .  S
C91        C1124   1.485       .  S
C91          C92   1.378       .  A
C92          H94   1.082       .  S
O95        Cu103   2.005       .  S
O95         C105   1.277       .  A
O96        Cu103   2.006       .  S
O96         C106   1.277       .  A
O97        Cu103   2.022       .  S
O97         C107   1.279       .  A
O98        Cu103   2.011       .  S
O98         C108   1.278       .  A
O99        Cu104   1.996       .  S
O99         C108   1.277       .  A
O100       Cu104   1.988       .  S
O100        C107   1.276       .  A
O101       Cu104   1.999       .  S
O101        C106   1.278       .  A
O102       Cu104   1.998       .  S
O102        C105   1.278       .  A
Cu103      Cu104   2.374       .  S
C105       C1024   1.472       .  S
C106       C1004   1.472       .  S
C107        C994   1.471       .  S
C108       C1014   1.471       .  S
N109        N110   1.325       .  A
N109        C113   1.356   1_554  A
N109       Cu117   2.115   1_554  S
N110        C111   1.335       .  A
N110       Cu116   2.055       .  S
C111        C112   1.375   1_554  A
C111        H114   1.082       .  S
C112       C1384   1.479       .  S
C112        C113   1.393       .  A
C113        H115   1.082       .  S
Cu116       N119   2.053       .  S
Cu117       N127   2.114   1_556  S
Cu118       N120   2.049       .  S
Cu118       N126   2.050       .  S
N119        N120   1.315       .  A
N119        C123   1.344       .  A
N120        C121   1.341       .  A
C121        C122   1.385       .  A
C121        H124   1.082       .  S
C122       C1017   1.473       .  S
C122        C123   1.385       .  A
C123        H125   1.082       .  S
N126        N127   1.323       .  A
N126        C130   1.334       .  A
N127        C128   1.356   1_554  A
C128        C129   1.396   1_556  A
C128        H131   1.082       .  S
C129       C1347   1.488   1_554  S
C129        C130   1.378       .  A
C130        H132   1.082       .  S
C133        C954   1.562   1_556  S
C133        C964   1.559       .  S
C133        C974   1.570       .  S
C133        C984   1.560       .  S
O134       Cu142   2.012       .  S
O134        C144   1.278       .  A
O135       Cu142   2.014   1_564  S
O135        C145   1.278       .  A
O136       Cu142   2.013   1_565  S
O136        C146   1.278       .  A
O137       Cu142   2.015   1_554  S
O137        C147   1.278       .  A
O138       Cu143   1.996   1_554  S
O138        C147   1.277       .  A
O139       Cu143   1.996   1_565  S
O139        C146   1.277       .  A
O140       Cu143   1.998   1_564  S
O140        C145   1.277       .  A
O141       Cu143   1.997       .  S
O141        C144   1.277       .  A
Cu142      Cu143   2.371       .  S
C144        C927   1.473       .  S
C145        C934   1.474       .  S
C146        C944   1.472       .  S
C147        C914   1.473       .  S
N148        N149   1.325       .  A
N148        C152   1.352       .  A
N148       Cu156   2.099       .  S
N149        C150   1.339       .  A
N149       Cu155   2.062       .  S
C150        C151   1.375       .  A
C150        H153   1.082       .  S
C151       C1247   1.469       .  S
C151        C152   1.387       .  A
C152        H154   1.082       .  S
Cu155       N158   2.060       .  S
Cu156       N166   2.098       .  S
Cu157       N159   2.054       .  S
Cu157       N165   2.054       .  S
N158        N159   1.317       .  A
N158        C162   1.344       .  A
N159        C160   1.342       .  A
C160        C161   1.384       .  A
C160        H163   1.082       .  S
C161        C947   1.473       .  S
C161        C162   1.385       .  A
C162        H164   1.082       .  S
N165        N166   1.323       .  A
N165        C169   1.337       .  A
N166        C167   1.353       .  A
C167        C168   1.390       .  A
C167        H170   1.082       .  S
C168       C1327   1.476       .  S
C168        C169   1.377       .  A
C169        H171   1.082       .  S
C172        C877   1.569   1_565  S
C172        C884   1.563       .  S
C172        C894   1.552       .  S
C172        C904   1.576       .  S
N173        N174   1.326       .  A
N173        C177   1.353       .  A
N173       Cu181   2.102       .  S
N174        C175   1.338       .  A
N174       Cu180   2.061       .  S
C175        C176   1.374       .  A
C175        H178   1.082       .  S
C176       C1317   1.468       .  S
C176        C177   1.387       .  A
C177        H179   1.082       .  S
Cu180       N183   2.058       .  S
Cu181       N191   2.101       .  S
Cu182       N184   2.050       .  S
Cu182       N190   2.050       .  S
N183        N184   1.316       .  A
N183        C187   1.344       .  A
N184        C185   1.342       .  A
C185        C186   1.384       .  A
C185        H188   1.082       .  S
C186        C937   1.472       .  S
C186        C187   1.386       .  A
C187        H189   1.082       .  S
N190        N191   1.322       .  A
N190        C194   1.334       .  A
N191        C192   1.355       .  A
C192        C193   1.394       .  A
C192        H195   1.082       .  S
C193        C887   1.485       .  S
C193        C194   1.380       .  A
C194        H196   1.081       .  S
N197        N198   1.324       .  A
N197        C201   1.356       .  A
N197       Cu205   2.113       .  S
N198        C199   1.337       .  A
N198       Cu204   2.053       .  S
C199        C200   1.378       .  A
C199        H202   1.082       .  S
C200       C1237   1.484       .  S
C200        C201   1.394       .  A
C201        H203   1.082       .  S
Cu204       N207   2.053       .  S
Cu205       N215   2.113       .  S
Cu206       N208   2.053       .  S
Cu206       N214   2.054       .  S
N207        N208   1.316       .  A
N207        C211   1.342       .  A
N208        C209   1.344       .  A
C209        C210   1.384       .  A
C209        H212   1.082       .  S
C210        C924   1.474       .  S
C210        C211   1.385       .  A
C211        H213   1.082       .  S
N214        N215   1.325       .  A
N214        C218   1.337       .  A
N215        C216   1.355       .  A
C216        C217   1.392       .  A
C216        H219   1.082       .  S
C217        C967   1.479       .  S
C217        C218   1.376       .  A
C218        H220   1.082       .  S
O221       Cu229   1.985       .  S
O221        C231   1.276       .  A
O222       Cu229   1.989       .  S
O222        C232   1.276       .  A
O223       Cu229   1.996       .  S
O223        C233   1.277       .  A
O224       Cu229   2.003       .  S
O224        C234   1.278       .  A
O225       Cu230   2.006       .  S
O225        C234   1.277       .  A
O226       Cu230   2.013       .  S
O226        C233   1.278       .  A
O227       Cu230   2.021       .  S
O227        C232   1.279       .  A
O228       Cu230   2.023       .  S
O228        C231   1.280       .  A
Cu229      Cu230   2.373       .  S
C231        C854   1.481       .  S
C232        C844   1.473       .  S
C233        C864   1.476       .  S
C234        C834   1.472       .  S
N235        N236   1.325       .  A
N235        C239   1.354   1_455  A
N235       Cu243   2.114       .  S
N236        C237   1.340       .  A
N236       Cu242   2.064       .  S
C237        C238   1.377   1_455  A
C237        H240   1.082       .  S
C238       C1187   1.479       .  S
C238        C239   1.391       .  A
C239        H241   1.082       .  S
Cu242       N245   2.063       .  S
Cu243       N253   2.114       .  S
Cu244       N246   2.052       .  S
Cu244       N252   2.057       .  S
N245        N246   1.317       .  A
N245        C249   1.344       .  A
N246        C247   1.341       .  A
C247        C248   1.385       .  A
C247        H250   1.083       .  S
C248        C857   1.470       .  S
C248        C249   1.387       .  A
C249        H251   1.082       .  S
N252        N253   1.324       .  A
N252        C256   1.339       .  A
N253        C254   1.355   1_455  A
C254        C255   1.393   1_655  A
C254        H257   1.082       .  S
C255       C1307   1.481   1_455  S
C255        C256   1.377       .  A
C256        H258   1.082       .  S
O259       Cu267   2.016       .  S
O259        C269   1.278       .  A
O260       Cu267   2.017       .  S
O260        C270   1.279       .  A
O261       Cu267   2.014       .  S
O261        C271   1.278       .  A
O262       Cu267   2.002       .  S
O262        C272   1.277       .  A
O263       Cu268   2.006       .  S
O263        C272   1.278       .  A
O264       Cu268   1.996       .  S
O264        C271   1.277       .  A
O265       Cu268   1.996       .  S
O265        C270   1.277       .  A
O266       Cu268   1.993       .  S
O266        C269   1.277       .  A
Cu267      Cu268   2.374       .  S
C269        C814   1.473       .  S
C270        C794   1.474       .  S
C271        C827   1.474       .  S
C272        C807   1.474       .  S
N273        N274   1.325       .  A
N273        C277   1.354   1_545  A
N273       Cu281   2.113       .  S
N274        C275   1.339       .  A
N274       Cu280   2.061       .  S
C275        C276   1.376       .  A
C275        H278   1.082       .  S
C276       C1227   1.476   1_545  S
C276        C277   1.391   1_545  A
C277        H279   1.082       .  S
Cu280       N283   2.059       .  S
Cu281       N291   2.113       .  S
Cu282       N284   2.053       .  S
Cu282       N290   2.055       .  S
N283        N284   1.317       .  A
N283        C287   1.345       .  A
N284        C285   1.342       .  A
C285        C286   1.384       .  A
C285        H288   1.082       .  S
C286        C817   1.473       .  S
C286        C287   1.385       .  A
C287        H289   1.082       .  S
N290        N291   1.324       .  A
N290        C294   1.339       .  A
N291        C292   1.354   1_545  A
C292        C293   1.392   1_565  A
C292        H295   1.082       .  S
C293       C1267   1.482       .  S
C293        C294   1.377       .  A
C294        H296   1.082       .  S
C297        C754   1.569   1_565  S
C297        C764   1.565       .  S
C297        C774   1.579   1_565  S
C297        C784   1.552       .  S
O298       Cu306   2.021   1_545  S
O298        C308   1.279       .  A
O299       Cu306   2.027   1_455  S
O299        C309   1.280       .  A
O300       Cu306   2.026       .  S
O300        C310   1.279       .  A
O301       Cu306   2.015   1_445  S
O301        C311   1.279       .  A
O302       Cu307   1.982   1_445  S
O302        C311   1.274       .  A
O303       Cu307   1.968       .  S
O303        C310   1.272       .  A
O304       Cu307   1.968   1_455  S
O304        C309   1.273       .  A
O305       Cu307   1.977   1_545  S
O305        C308   1.274       .  A
Cu306      Cu307   2.378       .  S
C308        C734   1.468       .  S
C309        C724   1.466       .  S
C310        C744   1.458       .  S
C311        C714   1.467       .  S
N312        N313   1.324       .  A
N312        C316   1.352       .  A
N312       Cu320   2.110       .  S
N313        C314   1.339       .  A
N313       Cu319   2.046       .  S
C314        C315   1.375       .  A
C314        H317   1.082       .  S
C315       C1167   1.471       .  S
C315        C316   1.389       .  A
C316        H318   1.082       .  S
Cu319       N322   2.043       .  S
Cu320       N330   2.110       .  S
Cu321       N323   2.043       .  S
Cu321       N329   2.048       .  S
N322        N323   1.316       .  A
N322        C326   1.341       .  A
N323        C324   1.343       .  A
C324        C325   1.386       .  A
C324        H327   1.079       .  S
C325        C747   1.487       .  S
C325        C326   1.385       .  A
C326        H328   1.082       .  S
N329        N330   1.325       .  A
N329        C333   1.339       .  A
N330        C331   1.352       .  A
C331        C332   1.388       .  A
C331        H334   1.082       .  S
C332       C1207   1.470       .  S
C332        C333   1.374       .  A
C333        H335   1.082       .  S
C336        C674   1.566   1_655  S
C336        C684   1.556       .  S
C336        C694   1.565       .  S
C336        C704   1.552       .  S
N337        N338   1.323       .  A
N337        C341   1.356       .  A
N337       Cu345   2.115       .  S
N338        C339   1.334       .  A
N338       Cu344   2.045       .  S
C339        C340   1.379       .  A
C339        H342   1.082       .  S
C340       C1197   1.488       .  S
C340        C341   1.396       .  A
C341        H343   1.081       .  S
Cu344       N347   2.041       .  S
Cu345       N355   2.116       .  S
Cu346       N348   2.044       .  S
Cu346       N354   2.043       .  S
N347        N348   1.315       .  A
N347        C351   1.342       .  A
N348        C349   1.343       .  A
C349        C350   1.384       .  A
C349        H352   1.082       .  S
C350        C737   1.475       .  S
C350        C351   1.382       .  A
C351        H353   1.082       .  S
N354        N355   1.324       .  A
N354        C358   1.337       .  A
N355        C356   1.353       .  A
C356        C357   1.392       .  A
C356        H359   1.082       .  S
C357        C687   1.473       .  S
C357        C358   1.374       .  A
C358        H360   1.082       .  S
N361        N362   1.324       .  A
N361        C365   1.359       .  A
N361       Cu369   2.129       .  S
N362        C363   1.332       .  A
N362       Cu368   2.041       .  S
C363        C364   1.375       .  A
C363        H366   1.082       .  S
C364       C1157   1.487       .  S
C364        C365   1.398       .  A
C365        H367   1.082       .  S
Cu368       N371   2.039       .  S
Cu369       N379   2.129       .  S
Cu370       N372   2.033       .  S
Cu370       N378   2.036       .  S
N371        N372   1.314       .  A
N371        C375   1.342       .  A
N372        C373   1.341       .  A
C373        C374   1.382       .  A
C373        H376   1.082       .  S
C374        C727   1.473       .  S
C374        C375   1.382       .  A
C375        H377   1.082       .  S
N378        N379   1.323       .  A
N378        C382   1.331       .  A
N379        C380   1.359       .  A
C380        C381   1.400       .  A
C380        H383   1.082       .  S
C381        C767   1.489       .  S
C381        C382   1.376       .  A
C382        H384   1.081       .  S
N385        N386   1.323       .  A
N385        C389   1.354       .  A
N385       Cu393   2.109       .  S
N386        C387   1.337       .  A
N386       Cu392   2.054       .  S
C387        C388   1.378       .  A
C387        H390   1.082       .  S
C388        C777   1.483       .  S
C388        C389   1.393       .  A
C389        H391   1.082   1_545  S
Cu392       N395   2.050       .  S
Cu393       N403   2.109       .  S
Cu394       N396   2.059       .  S
Cu394       N402   2.058       .  S
N395        N396   1.317       .  A
N395        C399   1.342       .  A
N396        C397   1.344       .  A
C397        C398   1.386       .  A
C397        H400   1.082       .  S
C398        C824   1.474       .  S
C398        C399   1.382       .  A
C399        H401   1.082       .  S
N402        N403   1.324       .  A
N402        C406   1.340       .  A
N403        C404   1.352   1_545  A
C404        C405   1.391   1_565  A
C404        H407   1.082       .  S
C405       C1257   1.475   1_545  S
C405        C406   1.376       .  A
C406        H408   1.082       .  S
N409        N410   1.325       .  A
N409        C413   1.355   1_455  A
N409       Cu417   2.117       .  S
N410        C411   1.337       .  A
N410       Cu416   2.054       .  S
C411        C412   1.377       .  A
C411        H414   1.082       .  S
C412        C697   1.484       .  S
C412        C413   1.394   1_455  A
C413        H415   1.082       .  S
Cu416       N419   2.053       .  S
Cu417       N427   2.115       .  S
Cu418       N420   2.048       .  S
Cu418       N426   2.050       .  S
N419        N420   1.315       .  A
N419        C423   1.342       .  A
N420        C421   1.343       .  A
C421        C422   1.384       .  A
C421        H424   1.082       .  S
C422        C867   1.470       .  S
C422        C423   1.386       .  A
C423        H425   1.082       .  S
N426        N427   1.324       .  A
N426        C430   1.332       .  A
N427        C428   1.358   1_455  A
C428        C429   1.395   1_655  A
C428        H431   1.082       .  S
C429       C1297   1.485   1_455  S
C429        C430   1.377       .  A
C430        H432   1.082       .  S
N433        N434   1.325       .  A
N433        C437   1.355       .  A
N433       Cu441   2.120       .  S
N434        C435   1.338       .  A
N434       Cu440   2.046       .  S
C435        C436   1.375       .  A
C435        H438   1.082       .  S
C436        C677   1.480       .  S
C436        C437   1.393       .  A
C437        H439   1.082       .  S
Cu440       N443   2.044       .  S
Cu441       N451   2.120       .  S
Cu442       N444   2.043       .  S
Cu442       N450   2.048       .  S
N443        N444   1.317       .  A
N443        C447   1.342       .  A
N444        C445   1.342       .  A
C445        C446   1.381       .  A
C445        H448   1.082       .  S
C446        C717   1.473       .  S
C446        C447   1.382       .  A
C447        H449   1.082       .  S
N450        N451   1.324       .  A
N450        C454   1.337       .  A
N451        C452   1.355       .  A
C452        C453   1.394       .  A
C452        H455   1.082       .  S
C453        C757   1.483       .  S
C453        C454   1.376       .  A
C454        H456   1.082       .  S
N457        N458   1.325       .  A
N457        C461   1.352       .  A
N457       Cu465   2.102       .  S
N458        C459   1.337       .  A
N458       Cu464   2.055       .  S
C459        C460   1.375       .  A
C459        H462   1.082       .  S
C460       C1214   1.472       .  S
C460        C461   1.388       .  A
C461        H463   1.082   1_545  S
Cu464       N467   2.053       .  S
Cu465       N475   2.102       .  S
Cu466       N468   2.047       .  S
Cu466       N474   2.048       .  S
N467        N468   1.316       .  A
N467        C471   1.344       .  A
N468        C469   1.342       .  A
C469        C470   1.383       .  A
C469        H472   1.082       .  S
C470        C804   1.471       .  S
C470        C471   1.384       .  A
C471        H473   1.082       .  S
N474        N475   1.323       .  A
N474        C478   1.335       .  A
N475        C476   1.354       .  A
C476        C477   1.392       .  A
C476        H479   1.082   1_545  S
C477        C907   1.479       .  S
C477        C478   1.377       .  A
C478        H480   1.082       .  S
N481        N482   1.324       .  A
N481        C485   1.353       .  A
N481       Cu489   2.104       .  S
N482        C483   1.337       .  A
N482       Cu488   2.050       .  S
C483        C484   1.375       .  A
C483        H486   1.082       .  S
C484       C1177   1.474       .  S
C484        C485   1.390       .  A
C485        H487   1.082   1_455  S
Cu488       N491   2.051       .  S
Cu489       N499   2.105       .  S
Cu490       N492   2.055       .  S
Cu490       N498   2.057       .  S
N491        N492   1.316       .  A
N491        C495   1.342       .  A
N492        C493   1.344       .  A
C493        C494   1.384       .  A
C493        H496   1.082       .  S
C494        C837   1.474       .  S
C494        C495   1.385       .  A
C495        H497   1.082       .  S
N498        N499   1.324       .  A
N498        C502   1.336       .  A
N499        C500   1.354       .  A
C500        C501   1.392       .  A
C500        H503   1.082   1_455  S
C501       C1067   1.483       .  S
C501        C502   1.379       .  A
C502        H504   1.082       .  S
N505        N506   1.322       .  A
N505        C509   1.356   1_554  A
N505       Cu513   2.111       .  S
N506        C507   1.335       .  A
N506       Cu512   2.052       .  S
C507        C508   1.380       .  A
C507        H510   1.082       .  S
C508        C977   1.490       .  S
C508        C509   1.397   1_554  A
C509        H511   1.081       .  S
Cu512       N515   2.050       .  S
Cu513       N523   2.112       .  S
Cu514       N516   2.052       .  S
Cu514       N522   2.054       .  S
N515        N516   1.316       .  A
N515        C519   1.341       .  A
N516        C517   1.343       .  A
C517        C518   1.384       .  A
C517        H520   1.082       .  S
C518       C1027   1.470       .  S
C518        C519   1.384       .  A
C519        H521   1.082       .  S
N522        N523   1.326       .  A
N522        C526   1.338       .  A
N523        C524   1.353   1_554  A
C524        C525   1.389   1_556  A
C524        H527   1.082       .  S
C525       C1377   1.471   1_554  S
C525        C526   1.373       .  A
C526        H528   1.082       .  S
N529        N530   1.324       .  A
N529        C533   1.354       .  A
N529       Cu537   2.109       .  S
N530        C531   1.339       .  A
N530       Cu536   2.060       .  S
C531        C532   1.376       .  A
C531        H534   1.082       .  S
C532        C957   1.476       .  S
C532        C533   1.390       .  A
C533        H535   1.082       .  S
Cu536       N539   2.060       .  S
Cu537       N547   2.109       .  S
Cu538       N540   2.050       .  S
Cu538       N546   2.054       .  S
N539        N540   1.317       .  A
N539        C543   1.343       .  A
N540        C541   1.342       .  A
C541        C542   1.384       .  A
C541        H544   1.082       .  S
C542        C917   1.476       .  S
C542        C543   1.387       .  A
C543        H545   1.082       .  S
N546        N547   1.324       .  A
N546        C550   1.338       .  A
N547        C548   1.354       .  A
C548        C549   1.392       .  A
C548        H551   1.082       .  S
C549        C874   1.480       .  S
C549        C550   1.377       .  A
C550        H552   1.082       .  S
N553        N554   1.323       .  A
N553        C557   1.352       .  A
N553       Cu561   2.098       .  S
N554        C555   1.336       .  A
N554       Cu560   2.051       .  S
C555        C556   1.378       .  A
C555        H558   1.082       .  S
C556       C1137   1.480       .  S
C556        C557   1.391       .  A
C557        H559   1.082   1_554  S
Cu560       N563   2.049       .  S
Cu561       N571   2.098       .  S
Cu562       N564   2.056       .  S
Cu562       N570   2.058       .  S
N563        N564   1.317       .  A
N563        C567   1.342       .  A
N564        C565   1.343       .  A
C565        C566   1.384       .  A
C565        H568   1.082       .  S
C566       C1007   1.471       .  S
C566        C567   1.383       .  A
C567        H569   1.082       .  S
N570        N571   1.325       .  A
N570        C574   1.338       .  A
N571        C572   1.352   1_554  A
C572        C573   1.387   1_556  A
C572        H575   1.082       .  S
C573       C1334   1.468   1_554  S
C573        C574   1.375       .  A
C574        H576   1.082       .  S
N577        N578   1.324       .  A
N577        C581   1.356       .  A
N577       Cu585   2.115       .  S
N578        C579   1.336       .  A
N578       Cu584   2.049       .  S
C579        C580   1.375       .  A
C579        H582   1.082       .  S
C580       C1117   1.482       .  S
C580        C581   1.394       .  A
C581        H583   1.082       .  S
Cu584       N587   2.047       .  S
Cu585       N595   2.116       .  S
Cu586       N588   2.053       .  S
Cu586       N594   2.055       .  S
N587        N588   1.316       .  A
N587        C591   1.341       .  A
N588        C589   1.344       .  A
C589        C590   1.385       .  A
C589        H592   1.082       .  S
C590       C1077   1.473       .  S
C590        C591   1.384       .  A
C591        H593   1.082       .  S
N594        N595   1.325       .  A
N594        C598   1.337       .  A
N595        C596   1.355       .  A
C596        C597   1.393       .  A
C596        H599   1.082       .  S
C597       C1037   1.481       .  S
C597        C598   1.376       .  A
C598        H600   1.082       .  S
N601        N602   1.323       .  A
N601        C605   1.349   1_455  A
N601       Cu609   2.085       .  S
N602        C603   1.339       .  A
N602       Cu608   2.059       .  S
C603        C604   1.376       .  A
C603        H606   1.082       .  S
C604        C707   1.465   1_455  S
C604        C605   1.385   1_455  A
C605        H607   1.082       .  S
Cu608       N611   2.058       .  S
Cu609       N619   2.086       .  S
Cu610       N612   2.063       .  S
Cu610       N618   2.065       .  S
N611        N612   1.318       .  A
N611        C615   1.342       .  A
N612        C613   1.345       .  A
C613        C614   1.384       .  A
C613        H616   1.082       .  S
C614        C847   1.473       .  S
C614        C615   1.384       .  A
C615        H617   1.082       .  S
N618        N619   1.324       .  A
N618        C622   1.340       .  A
N619        C620   1.349   1_455  A
C620        C621   1.384   1_655  A
C620        H623   1.082       .  S
C621       C1057   1.466   1_455  S
C621        C622   1.377       .  A
C622        H624   1.082       .  S
N625        N626   1.323       .  A
N625        C629   1.354       .  A
N625       Cu633   2.106       .  S
N626        C627   1.334       .  A
N626       Cu632   2.051       .  S
C627        C628   1.379       .  A
C627        H630   1.082       .  S
C628        C787   1.484       .  S
C628        C629   1.393       .  A
C629        H631   1.082   1_545  S
Cu632       N635   2.053       .  S
Cu633       N643   2.106       .  S
Cu634       N636   2.052       .  S
Cu634       N642   2.053       .  S
N635        N636   1.315       .  A
N635        C639   1.343       .  A
N636        C637   1.344       .  A
C637        C638   1.384       .  A
C637        H640   1.082       .  S
C638        C797   1.475       .  S
C638        C639   1.386       .  A
C639        H641   1.082       .  S
N642        N643   1.323       .  A
N642        C646   1.334       .  A
N643        C644   1.354       .  A
C644        C645   1.394       .  A
C644        H647   1.081   1_545  S
C645        C897   1.487       .  S
C645        C646   1.380       .  A
C646        H648   1.081       .  S
N649        N650   1.324       .  A
N649        C653   1.352   1_554  A
N649       Cu657   2.103       .  S
N650        C651   1.339       .  A
N650       Cu656   2.057       .  S
C651        C652   1.375       .  A
C651        H654   1.082       .  S
C652        C987   1.470   1_554  S
C652        C653   1.388   1_554  A
C653        H655   1.082       .  S
Cu656       N659   2.056       .  S
Cu657       N667   2.103       .  S
Cu658       N660   2.056       .  S
Cu658       N666   2.057       .  S
N659        N660   1.316       .  A
N659        C663   1.342       .  A
N660        C661   1.344       .  A
C661        C662   1.385       .  A
C661        H664   1.082       .  S
C662        C997   1.477       .  S
C662        C663   1.386       .  A
C663        H665   1.082       .  S
N666        N667   1.323       .  A
N666        C670   1.336       .  A
N667        C668   1.353       .  A
C668        C669   1.393       .  A
C668        H671   1.082   1_554  S
C669       C1147   1.486       .  S
C669        C670   1.381       .  A
C670        H672   1.081       .  S
C673        C674   1.414       .  A
C673        C678   1.396       .  A
C673        H680   1.083   1_455  S
C674        C675   1.429       .  A
C675        C676   1.403       .  A
C675        F682   1.354       .  S
C676        C677   1.396       .  A
C676        H681   1.084       .  S
C677        C678   1.403       .  A
C678        F679   1.358       .  S
C683        C684   1.417       .  A
C683        C688   1.402       .  A
C683        H690   1.080       .  S
C684        C685   1.418       .  A
C685        C686   1.395       .  A
C685        F692   1.357       .  S
C686        C687   1.398       .  A
C686        H691   1.084       .  S
C687        C688   1.402       .  A
C688        F689   1.357       .  S
C693        C694   1.421       .  A
C693        C698   1.406       .  A
C693        H700   1.079       .  S
C694        C695   1.417   1_655  A
C695        C696   1.392       .  A
C695        F702   1.357       .  S
C696        C697   1.401       .  A
C696        H701   1.083       .  S
C697        C698   1.402   1_455  A
C698        F699   1.357       .  S
C703        C704   1.416       .  A
C703        C708   1.396       .  A
C703        H710   1.080       .  S
C704        C705   1.418       .  A
C705        C706   1.398       .  A
C705        F712   1.357       .  S
C706        C707   1.397       .  A
C706        H711   1.083       .  S
C707        C708   1.399       .  A
C708        F709   1.358       .  S
C713        C714   1.400       .  A
C713        C718   1.397       .  A
C713        H720   1.084       .  S
C714        C715   1.406       .  A
C715        C716   1.395       .  A
C715        F722   1.358       .  S
C716        C717   1.400       .  A
C716        H721   1.083       .  S
C717        C718   1.411       .  A
C718        F719   1.357       .  S
C723        C724   1.400       .  A
C723        C728   1.398       .  A
C723        H730   1.084       .  S
C724        C725   1.406       .  A
C725        C726   1.392       .  A
C725        F732   1.358       .  S
C726        C727   1.399       .  A
C726        H731   1.083       .  S
C727        C728   1.412       .  A
C728        F729   1.357       .  S
C733        C734   1.403       .  A
C733        C738   1.393       .  A
C733        H740   1.084       .  S
C734        C735   1.404       .  A
C735        C736   1.399       .  A
C735        F742   1.358       .  S
C736        C737   1.408       .  A
C736        H741   1.083       .  S
C737        C738   1.403       .  A
C738        F739   1.357       .  S
C743        C744   1.397       .  A
C743        C748   1.399       .  A
C743        H750   1.084       .  S
C744        C745   1.399       .  A
C745        C746   1.392       .  A
C745        F752   1.358       .  S
C746        C747   1.406       .  A
C746        H751   1.082       .  S
C747        C748   1.416       .  A
C748        F749   1.355       .  S
C753        C754   1.413       .  A
C753        C758   1.397       .  A
C753        H760   1.083   1_545  S
C754        C755   1.427       .  A
C755        C756   1.403       .  A
C755        F762   1.355       .  S
C756        C757   1.398       .  A
C756        H761   1.083       .  S
C757        C758   1.406       .  A
C758        F759   1.358       .  S
C763        C764   1.412       .  A
C763        C768   1.388       .  A
C763        H770   1.074       .  S
C764        C765   1.424       .  A
C765        C766   1.409       .  A
C765        F772   1.357       .  S
C766        C767   1.403       .  A
C766        H771   1.083       .  S
C767        C768   1.405       .  A
C768        F769   1.358       .  S
C773        C774   1.418       .  A
C773        C778   1.391       .  A
C773        H780   1.075       .  S
C774        C775   1.425   1_545  A
C775        C776   1.407       .  A
C775        F782   1.358       .  S
C776        C777   1.401   1_565  A
C776        H781   1.083       .  S
C777        C778   1.401       .  A
C778        F779   1.358       .  S
C783        C784   1.418       .  A
C783        C788   1.407       .  A
C783        H790   1.079       .  S
C784        C785   1.416   1_565  A
C785        C786   1.387       .  A
C785        F792   1.358       .  S
C786        C787   1.401       .  A
C786        H791   1.082       .  S
C787        C788   1.404   1_545  A
C788        F789   1.357       .  S
C793        C794   1.403       .  A
C793        C798   1.395       .  A
C793        H800   1.084       .  S
C794        C795   1.407       .  A
C795        C796   1.401       .  A
C795        F802   1.357       .  S
C796        C797   1.403       .  A
C796        H801   1.083       .  S
C797        C798   1.407       .  A
C798        F799   1.358       .  S
C803        C804   1.401       .  A
C803        C808   1.399       .  A
C803        H810   1.083       .  S
C804        C805   1.407       .  A
C805        C806   1.395       .  A
C805        F812   1.358       .  S
C806        C807   1.402       .  A
C806        H811   1.083       .  S
C807        C808   1.408       .  A
C808        F809   1.357       .  S
C813        C814   1.402       .  A
C813        C818   1.392       .  A
C813        H820   1.084       .  S
C814        C815   1.407       .  A
C815        C816   1.402       .  A
C815        F822   1.357       .  S
C816        C817   1.403       .  A
C816        H821   1.083       .  S
C817        C818   1.407       .  A
C818        F819   1.358       .  S
C823        C824   1.403       .  A
C823        C828   1.400       .  A
C823        H830   1.083       .  S
C824        C825   1.407       .  A
C825        C826   1.394       .  A
C825        F832   1.358       .  S
C826        C827   1.403       .  A
C826        H831   1.084       .  S
C827        C828   1.407       .  A
C828        F829   1.357       .  S
C833        C834   1.405       .  A
C833        C838   1.399       .  A
C833        H840   1.083       .  S
C834        C835   1.405       .  A
C835        C836   1.395       .  A
C835        F842   1.358       .  S
C836        C837   1.405       .  A
C836        H841   1.083       .  S
C837        C838   1.404       .  A
C838        F839   1.357       .  S
C843        C844   1.403       .  A
C843        C848   1.393       .  A
C843        H850   1.084       .  S
C844        C845   1.406       .  A
C845        C846   1.402       .  A
C845        F852   1.357       .  S
C846        C847   1.403       .  A
C846        H851   1.083       .  S
C847        C848   1.406       .  A
C848        F849   1.358       .  S
C853        C854   1.409       .  A
C853        C858   1.404       .  A
C853        H860   1.083       .  S
C854        C855   1.410       .  A
C855        C856   1.390       .  A
C855        F862   1.358       .  S
C856        C857   1.400       .  A
C856        H861   1.084       .  S
C857        C858   1.401       .  A
C858        F859   1.357       .  S
C863        C864   1.403       .  A
C863        C868   1.392       .  A
C863        H870   1.083       .  S
C864        C865   1.409       .  A
C865        C866   1.401       .  A
C865        F872   1.357       .  S
C866        C867   1.401       .  A
C866        H871   1.083       .  S
C867        C868   1.405       .  A
C868        F869   1.358       .  S
C873        C874   1.398       .  A
C873        C878   1.403       .  A
C873        H880   1.083       .  S
C874        C875   1.404       .  A
C875        C876   1.396       .  A
C875        F882   1.357       .  S
C876        C877   1.414       .  A
C876        H881   1.083   1_545  S
C877        C878   1.426       .  A
C878        F879   1.355       .  S
C883        C884   1.414       .  A
C883        C888   1.388       .  A
C883        H890   1.073       .  S
C884        C885   1.423       .  A
C885        C886   1.407       .  A
C885        F892   1.357       .  S
C886        C887   1.403       .  A
C886        H891   1.083       .  S
C887        C888   1.402       .  A
C888        F889   1.358       .  S
C893        C894   1.417       .  A
C893        C898   1.407       .  A
C893        H900   1.079       .  S
C894        C895   1.416   1_565  A
C895        C896   1.387       .  A
C895        F902   1.358       .  S
C896        C897   1.402       .  A
C896        H901   1.082       .  S
C897        C898   1.406   1_545  A
C898        F899   1.356       .  S
C903        C904   1.417   1_545  A
C903        C908   1.389       .  A
C903        H910   1.075       .  S
C904        C905   1.425       .  A
C905        C906   1.406       .  A
C905        F912   1.358       .  S
C906        C907   1.401   1_565  A
C906        H911   1.083       .  S
C907        C908   1.400       .  A
C908        F909   1.358       .  S
C913        C914   1.404       .  A
C913        C918   1.401       .  A
C913        H920   1.083       .  S
C914        C915   1.405       .  A
C915        C916   1.394       .  A
C915        F922   1.358       .  S
C916        C917   1.404       .  A
C916        H921   1.083       .  S
C917        C918   1.406       .  A
C918        F919   1.357       .  S
C923        C924   1.403       .  A
C923        C928   1.400       .  A
C923        H930   1.083       .  S
C924        C925   1.407       .  A
C925        C926   1.393       .  A
C925        F932   1.358       .  S
C926        C927   1.402       .  A
C926        H931   1.084       .  S
C927        C928   1.407       .  A
C928        F929   1.357       .  S
C933        C934   1.406       .  A
C933        C938   1.400       .  A
C933        H940   1.083       .  S
C934        C935   1.406       .  A
C935        C936   1.394       .  A
C935        F942   1.358       .  S
C936        C937   1.403       .  A
C936        H941   1.084       .  S
C937        C938   1.403       .  A
C938        F939   1.357       .  S
C943        C944   1.402       .  A
C943        C948   1.394       .  A
C943        H950   1.084       .  S
C944        C945   1.407       .  A
C945        C946   1.400       .  A
C945        F952   1.357       .  S
C946        C947   1.402       .  A
C946        H951   1.083       .  S
C947        C948   1.407       .  A
C948        F949   1.358       .  S
C953        C954   1.416       .  A
C953        C958   1.404       .  A
C953        H960   1.080   1_554  S
C954        C955   1.421       .  A
C955        C956   1.397       .  A
C955        F962   1.357       .  S
C956        C957   1.398       .  A
C956        H961   1.084       .  S
C957        C958   1.403       .  A
C958        F959   1.357       .  S
C963        C964   1.421       .  A
C963        C968   1.405       .  A
C963        H970   1.080       .  S
C964        C965   1.417       .  A
C965        C966   1.391       .  A
C965        F972   1.355       .  S
C966        C967   1.399       .  A
C966        H971   1.084       .  S
C967        C968   1.401       .  A
C968        F969   1.357       .  S
C973        C974   1.419       .  A
C973        C978   1.410       .  A
C973        H980   1.083       .  S
C974        C975   1.424   1_556  A
C975        C976   1.389       .  A
C975        F982   1.356       .  S
C976        C977   1.400       .  A
C976        H981   1.083       .  S
C977        C978   1.406   1_554  A
C978        F979   1.356       .  S
C983        C984   1.417       .  A
C983        C988   1.399       .  A
C983        H990   1.077       .  S
C984        C985   1.421       .  A
C985        C986   1.398       .  A
C985        F992   1.357       .  S
C986        C987   1.397       .  A
C986        H991   1.083       .  S
C987        C988   1.400       .  A
C988        F989   1.358   1_556  S
C993        C994   1.404       .  A
C993        C998   1.402       .  A
C993       H1000   1.083       .  S
C994        C995   1.405       .  A
C995        C996   1.393       .  A
C995       F1002   1.358       .  S
C996        C997   1.404       .  A
C996       H1001   1.083       .  S
C997        C998   1.406       .  A
C998        F999   1.357       .  S
C1003      C1004   1.402       .  A
C1003      C1008   1.393       .  A
C1003      H1010   1.084       .  S
C1004      C1005   1.408       .  A
C1005      C1006   1.399       .  A
C1005      F1012   1.357       .  S
C1006      C1007   1.401       .  A
C1006      H1011   1.083       .  S
C1007      C1008   1.407       .  A
C1008      F1009   1.358       .  S
C1013      C1014   1.405       .  A
C1013      C1018   1.400       .  A
C1013      H1020   1.083       .  S
C1014      C1015   1.405       .  A
C1015      C1016   1.393       .  A
C1015      F1022   1.358       .  S
C1016      C1017   1.404       .  A
C1016      H1021   1.083       .  S
C1017      C1018   1.404       .  A
C1018      F1019   1.357       .  S
C1023      C1024   1.402       .  A
C1023      C1028   1.392       .  A
C1023      H1030   1.084       .  S
C1024      C1025   1.408       .  A
C1025      C1026   1.400       .  A
C1025      F1032   1.357       .  S
C1026      C1027   1.401       .  A
C1026      H1031   1.083       .  S
C1027      C1028   1.407       .  A
C1028      F1029   1.358       .  S
C1033      C1034   1.421       .  A
C1033      C1038   1.405       .  A
C1033      H1040   1.079       .  S
C1034      C1035   1.418       .  A
C1035      C1036   1.392       .  A
C1035      F1042   1.357   1_455  S
C1036      C1037   1.400       .  A
C1036      H1041   1.083       .  S
C1037      C1038   1.401       .  A
C1038      F1039   1.357       .  S
C1043      C1044   1.417       .  A
C1043      C1048   1.398       .  A
C1043      H1050   1.081       .  S
C1044      C1045   1.416       .  A
C1045      C1046   1.398       .  A
C1045      F1052   1.356       .  S
C1046      C1047   1.399       .  A
C1046      H1051   1.084       .  S
C1047      C1048   1.400       .  A
C1048      F1049   1.357       .  S
C1053      C1054   1.414       .  A
C1053      C1058   1.398       .  A
C1053      H1060   1.083       .  S
C1054      C1055   1.423       .  A
C1055      C1056   1.395       .  A
C1055      F1062   1.356       .  S
C1056      C1057   1.396       .  A
C1056      H1061   1.084       .  S
C1057      C1058   1.399       .  A
C1058      F1059   1.357   1_655  S
C1063      C1064   1.419       .  A
C1063      C1068   1.406       .  A
C1063      H1070   1.079       .  S
C1064      C1065   1.417   1_655  A
C1065      C1066   1.389       .  A
C1065      F1072   1.357       .  S
C1066      C1067   1.400       .  A
C1066      H1071   1.083       .  S
C1067      C1068   1.403   1_455  A
C1068      F1069   1.357       .  S
C1073      C1074   1.405       .  A
C1073      C1078   1.400       .  A
C1073      H1080   1.083       .  S
C1074      C1075   1.405       .  A
C1075      C1076   1.394       .  A
C1075      F1082   1.358       .  S
C1076      C1077   1.405       .  A
C1076      H1081   1.083       .  S
C1077      C1078   1.403       .  A
C1078      F1079   1.357       .  S
C1083      C1084   1.402       .  A
C1083      C1088   1.392       .  A
C1083      H1090   1.084       .  S
C1084      C1085   1.407       .  A
C1085      C1086   1.401       .  A
C1085      F1092   1.357       .  S
C1086      C1087   1.403       .  A
C1086      H1091   1.083       .  S
C1087      C1088   1.407       .  A
C1088      F1089   1.358       .  S
C1093      C1094   1.405       .  A
C1093      C1098   1.403       .  A
C1093      H1100   1.083       .  S
C1094      C1095   1.405       .  A
C1095      C1096   1.392       .  A
C1095      F1102   1.358       .  S
C1096      C1097   1.403       .  A
C1096      H1101   1.083       .  S
C1097      C1098   1.405       .  A
C1098      F1099   1.357       .  S
C1103      C1104   1.404       .  A
C1103      C1108   1.400       .  A
C1103      H1110   1.083       .  S
C1104      C1105   1.404       .  A
C1105      C1106   1.394       .  A
C1105      F1112   1.358       .  S
C1106      C1107   1.404       .  A
C1106      H1111   1.083       .  S
C1107      C1108   1.405       .  A
C1108      F1109   1.357       .  S
C1113      C1114   1.422       .  A
C1113      C1118   1.404       .  A
C1113      H1120   1.079       .  S
C1114      C1115   1.418       .  A
C1115      C1116   1.395       .  A
C1115      F1122   1.357   1_554  S
C1116      C1117   1.403       .  A
C1116      H1121   1.083       .  S
C1117      C1118   1.400       .  A
C1118      F1119   1.357       .  S
C1123      C1124   1.397       .  A
C1123      C1128   1.388       .  A
C1123      H1130   1.084       .  S
C1124      C1125   1.403       .  A
C1125      C1126   1.408       .  A
C1125      F1132   1.356       .  S
C1126      C1127   1.422       .  A
C1126      H1131   1.083       .  S
C1127      C1128   1.425       .  A
C1128      F1129   1.351       .  S
C1133      C1134   1.416       .  A
C1133      C1138   1.389       .  A
C1133      H1140   1.075       .  S
C1134      C1135   1.424   1_554  A
C1135      C1136   1.405       .  A
C1135      F1142   1.358       .  S
C1136      C1137   1.401   1_556  A
C1136      H1141   1.083       .  S
C1137      C1138   1.401       .  A
C1138      F1139   1.358       .  S
C1143      C1144   1.413   1_554  A
C1143      C1148   1.387       .  A
C1143      H1150   1.083       .  S
C1144      C1145   1.422       .  A
C1145      C1146   1.408       .  A
C1145      F1152   1.354       .  S
C1146      C1147   1.404   1_556  A
C1146      H1151   1.083       .  S
C1147      C1148   1.405       .  A
C1148      F1149   1.357       .  S
C1153      C1154   1.415       .  A
C1153      C1158   1.389       .  A
C1153      H1160   1.081       .  S
C1154      C1155   1.422       .  A
C1155      C1156   1.411       .  A
C1155      F1162   1.356       .  S
C1156      C1157   1.404       .  A
C1156      H1161   1.083       .  S
C1157      C1158   1.403       .  A
C1158      F1159   1.358       .  S
C1163      C1164   1.416       .  A
C1163      C1168   1.403       .  A
C1163      H1170   1.079       .  S
C1164      C1165   1.419       .  A
C1165      C1166   1.395       .  A
C1165      F1172   1.357       .  S
C1166      C1167   1.396       .  A
C1166      H1171   1.084       .  S
C1167      C1168   1.402       .  A
C1168      F1169   1.358       .  S
C1173      C1174   1.413   1_455  A
C1173      C1178   1.391       .  A
C1173      H1180   1.082       .  S
C1174      C1175   1.426       .  A
C1175      C1176   1.403       .  A
C1175      F1182   1.356       .  S
C1176      C1177   1.397   1_655  A
C1176      H1181   1.083       .  S
C1177      C1178   1.401       .  A
C1178      F1179   1.358       .  S
C1183      C1184   1.417       .  A
C1183      C1188   1.405       .  A
C1183      H1190   1.080       .  S
C1184      C1185   1.420       .  A
C1185      C1186   1.397       .  A
C1185      F1192   1.357       .  S
C1186      C1187   1.399       .  A
C1186      H1191   1.084       .  S
C1187      C1188   1.403       .  A
C1188      F1189   1.357       .  S
C1193      C1194   1.418       .  A
C1193      C1198   1.408       .  A
C1193      H1200   1.082       .  S
C1194      C1195   1.422       .  A
C1195      C1196   1.389       .  A
C1195      F1202   1.356       .  S
C1196      C1197   1.400       .  A
C1196      H1201   1.083       .  S
C1197      C1198   1.406       .  A
C1198      F1199   1.356       .  S
C1203      C1204   1.416       .  A
C1203      C1208   1.401       .  A
C1203      H1210   1.079       .  S
C1204      C1205   1.419       .  A
C1205      C1206   1.395       .  A
C1205      F1212   1.357       .  S
C1206      C1207   1.396       .  A
C1206      H1211   1.083       .  S
C1207      C1208   1.402       .  A
C1208      F1209   1.358       .  S
C1213      C1214   1.398   1_565  A
C1213      C1218   1.403       .  A
C1213      H1220   1.083       .  S
C1214      C1215   1.400       .  A
C1215      C1216   1.390       .  A
C1215      F1222   1.358       .  S
C1216      C1217   1.413   1_545  A
C1216      H1221   1.080       .  S
C1217      C1218   1.425       .  A
C1218      F1219   1.356       .  S
C1223      C1224   1.416       .  A
C1223      C1228   1.403       .  A
C1223      H1230   1.080       .  S
C1224      C1225   1.419       .  A
C1225      C1226   1.398       .  A
C1225      F1232   1.357       .  S
C1226      C1227   1.399       .  A
C1226      H1231   1.084       .  S
C1227      C1228   1.402       .  A
C1228      F1229   1.357       .  S
C1233      C1234   1.421       .  A
C1233      C1238   1.407       .  A
C1233      H1240   1.079       .  S
C1234      C1235   1.418       .  A
C1235      C1236   1.391       .  A
C1235      F1242   1.357   1_545  S
C1236      C1237   1.401       .  A
C1236      H1241   1.083       .  S
C1237      C1238   1.402       .  A
C1238      F1239   1.357       .  S
C1243      C1244   1.417       .  A
C1243      C1248   1.397       .  A
C1243      H1250   1.081       .  S
C1244      C1245   1.417       .  A
C1245      C1246   1.400       .  A
C1245      F1252   1.356       .  S
C1246      C1247   1.399       .  A
C1246      H1251   1.083       .  S
C1247      C1248   1.399       .  A
C1248      F1249   1.358       .  S
C1253      C1254   1.413       .  A
C1253      C1258   1.398       .  A
C1253      H1260   1.083       .  S
C1254      C1255   1.424       .  A
C1255      C1256   1.400       .  A
C1255      F1262   1.356       .  S
C1256      C1257   1.398       .  A
C1256      H1261   1.084       .  S
C1257      C1258   1.401       .  A
C1258      F1259   1.357   1_565  S
C1263      C1264   1.421       .  A
C1263      C1268   1.405       .  A
C1263      H1270   1.078       .  S
C1264      C1265   1.418   1_565  A
C1265      C1266   1.394       .  A
C1265      F1272   1.357       .  S
C1266      C1267   1.401       .  A
C1266      H1271   1.083       .  S
C1267      C1268   1.401   1_545  A
C1268      F1269   1.357       .  S
C1273      C1274   1.418       .  A
C1273      C1278   1.390       .  A
C1273      H1280   1.066       .  S
C1274      C1275   1.427       .  A
C1275      C1276   1.406       .  A
C1275      F1282   1.358   1_455  S
C1276      C1277   1.400       .  A
C1276      H1281   1.082       .  S
C1277      C1278   1.399       .  A
C1278      F1279   1.359       .  S
C1283      C1284   1.417       .  A
C1283      C1288   1.407       .  A
C1283      H1290   1.079       .  S
C1284      C1285   1.418       .  A
C1285      C1286   1.389       .  A
C1285      F1292   1.358       .  S
C1286      C1287   1.402       .  A
C1286      H1291   1.082       .  S
C1287      C1288   1.406       .  A
C1288      F1289   1.357       .  S
C1293      C1294   1.423       .  A
C1293      C1298   1.409       .  A
C1293      H1300   1.083       .  S
C1294      C1295   1.424   1_655  A
C1295      C1296   1.388       .  A
C1295      F1302   1.349       .  S
C1296      C1297   1.396   1_455  A
C1296      H1301   1.084       .  S
C1297      C1298   1.402       .  A
C1298      F1299   1.357       .  S
C1303      C1304   1.423       .  A
C1303      C1308   1.402       .  A
C1303      H1310   1.078       .  S
C1304      C1305   1.419   1_655  A
C1305      C1306   1.399       .  A
C1305      F1312   1.358       .  S
C1306      C1307   1.402   1_455  A
C1306      H1311   1.083       .  S
C1307      C1308   1.399       .  A
C1308      F1309   1.357       .  S
C1313      C1314   1.417       .  A
C1313      C1318   1.395       .  A
C1313      H1320   1.083       .  S
C1314      C1315   1.420       .  A
C1315      C1316   1.402       .  A
C1315      F1322   1.355   1_554  S
C1316      C1317   1.400       .  A
C1316      H1321   1.083       .  S
C1317      C1318   1.398       .  A
C1318      F1319   1.358       .  S
C1323      C1324   1.419       .  A
C1323      C1328   1.405       .  A
C1323      H1330   1.080       .  S
C1324      C1325   1.417       .  A
C1325      C1326   1.390       .  A
C1325      F1332   1.355       .  S
C1326      C1327   1.398       .  A
C1326      H1331   1.084       .  S
C1327      C1328   1.401       .  A
C1328      F1329   1.357       .  S
C1333      C1334   1.396       .  A
C1333      C1338   1.399       .  A
C1333      H1340   1.083       .  S
C1334      C1335   1.399       .  A
C1335      C1336   1.395       .  A
C1335      F1342   1.358   1_556  S
C1336      C1337   1.416       .  A
C1336      H1341   1.078       .  S
C1337      C1338   1.421       .  A
C1338      F1339   1.357       .  S
C1343      C1344   1.419       .  A
C1343      C1348   1.408       .  A
C1343      H1350   1.083       .  S
C1344      C1345   1.422   1_556  A
C1345      C1346   1.390       .  A
C1345      F1352   1.356       .  S
C1346      C1347   1.400   1_554  A
C1346      H1351   1.083       .  S
C1347      C1348   1.405       .  A
C1348      F1349   1.356       .  S
C1353      C1354   1.416       .  A
C1353      C1358   1.405       .  A
C1353      H1360   1.081       .  S
C1354      C1355   1.420       .  A
C1355      C1356   1.394       .  A
C1355      F1362   1.356       .  S
C1356      C1357   1.398       .  A
C1356      H1361   1.084       .  S
C1357      C1358   1.403       .  A
C1358      F1359   1.357       .  S
C1363      C1364   1.419       .  A
C1363      C1368   1.403       .  A
C1363      H1370   1.081       .  S
C1364      C1365   1.420       .  A
C1365      C1366   1.393       .  A
C1365      F1372   1.355       .  S
C1366      C1367   1.397       .  A
C1366      H1371   1.084       .  S
C1367      C1368   1.399       .  A
C1368      F1369   1.357       .  S
C1373      C1374   1.415       .  A
C1373      C1378   1.396   1_556  A
C1373      H1380   1.080   1_556  S
C1374      C1375   1.421       .  A
C1375      C1376   1.401       .  A
C1375      F1382   1.357       .  S
C1376      C1377   1.397       .  A
C1376      H1381   1.083       .  S
C1377      C1378   1.400   1_556  A
C1378      F1379   1.358       .  S
C1383      C1384   1.402       .  A
C1383      C1388   1.408       .  A
C1383      H1390   1.083       .  S
C1384      C1385   1.401       .  A
C1385      C1386   1.391       .  A
C1385      F1392   1.358   1_556  S
C1386      C1387   1.414       .  A
C1386      H1391   1.080   1_556  S
C1387      C1388   1.421       .  A
C1388      F1389   1.357       .  S
