geometry optimzed in LAMMPS
_audit_creation_date              2020-12-01 
_audit_creation_method            'lammps2cif' 
_symmetry_space_group_name_H-M    'P1' 
_symmetry_Int_Tables_number       1 
_symmetry_cell_setting            triclinic 
loop_ 
_symmetry_equiv_pos_as_xyz 
  x,y,z 
_cell_length_a                    22.92494117 
_cell_length_b                    30.061773563965488 
_cell_length_c                    29.626163433900697 
_cell_angle_alpha                 90.13226658322556 
_cell_angle_beta                  89.97880284407802 
_cell_angle_gamma                 89.9867489883866 
loop_ 
_atom_site_label 
_atom_site_type_symbol 
_atom_site_fract_x 
_atom_site_fract_y 
_atom_site_fract_z 
_atom_site_charge 
O1          O  0.44103532  0.01942080  0.27234225    -0.73900
O2          O  0.55970711  0.05125627  0.02408777    -0.73900
O3          O  0.55928530  0.01920421  0.27285429    -0.74000
O4          O  0.44003712  0.05158854  0.02358243    -0.74000
O5          O  0.43875381  0.48439522  0.05492203    -0.73900
O6          O  0.55795382  0.45195092  0.30432148    -0.73900
O7          O  0.56039827  0.48399290  0.05526236    -0.74700
O8          O  0.44146945  0.45226745  0.30398954    -0.74000
Ni9        Ni  0.50003352  0.03803667  0.31430150     1.25400
Ni10       Ni  0.49962238  0.46580552  0.01415894     1.25400
C11         C  0.42200663  0.47954399  0.27428567     0.88300
C12         C  0.58269851  0.02276810  0.05112190     0.88200
C13         C  0.57790360  0.47924251  0.27485329     0.88300
C14         C  0.41673622  0.02324592  0.05057388     0.88400
O15         O  0.44136771  0.26822476  0.06165080    -0.73900
O16         O  0.56035685  0.30119927  0.31081394    -0.73900
O17         O  0.44070153  0.30152190  0.31101699    -0.74000
O18         O  0.55968894  0.26784861  0.06135537    -0.74000
O19         O  0.55827971  0.20099680  0.02875216    -0.73900
O20         O  0.43961910  0.23473379  0.27848288    -0.73900
O21         O  0.56103517  0.23432738  0.27847644    -0.73900
O22         O  0.44162316  0.20147931  0.02881635    -0.74000
Ni23       Ni  0.50053584  0.28734916  0.02020682     1.25400
Ni24       Ni  0.50011775  0.21554924  0.31908516     1.25400
C25         C  0.42210746  0.22845397  0.05891652     0.88300
C26         C  0.58319779  0.27311364  0.28314932     0.88200
C27         C  0.41771496  0.27357207  0.28331539     0.88300
C28         C  0.57842145  0.22793116  0.05858830     0.88400
C29         C  0.13802879  0.03683495  0.25980850     0.03700
C30         C  0.16025337  0.07872837  0.27063903    -0.12500
C31         C  0.19818174  0.10058619  0.24157703     0.01200
C32         C  0.23214875  0.07392112  0.21323964    -0.11000
C33         C  0.21363598  0.03006810  0.20089635     0.03700
C34         C  0.16495556  0.01218430  0.22471632    -0.10400
H35         H  0.14204680  0.09730967  0.29866086     0.09300
H36         H  0.27142737  0.08849594  0.19984238     0.06800
H37         H  0.14906615  0.47920493  0.21667167     0.06600
C38         C  0.12234460  0.21236019  0.24282020     0.03700
C39         C  0.13364488  0.16701188  0.24397211    -0.12500
C40         C  0.18870953  0.14966505  0.23385379     0.01200
C41         C  0.22895591  0.17863779  0.21336818    -0.11000
C42         C  0.21129042  0.22204858  0.19857427     0.03700
C43         C  0.15980318  0.23998973  0.21792477    -0.10400
H44         H  0.09903622  0.14544830  0.25555278     0.09300
H45         H  0.27248594  0.16652933  0.20661513     0.06800
H46         H  0.14953079  0.27492272  0.21400759     0.06600
C47         C  0.37545375  0.46323873  0.24403368     0.03700
C48         C  0.36499108  0.41782131  0.24510198    -0.12500
C49         C  0.31068111  0.39977328  0.23400167     0.01200
C50         C  0.27072640  0.42824912  0.21239420    -0.11000
C51         C  0.28805180  0.47192628  0.19792742     0.03700
C52         C  0.33849941  0.49039668  0.21829093    -0.10400
H53         H  0.39989823  0.39675160  0.25700739     0.09300
H54         H  0.22762684  0.41569154  0.20500033     0.06800
H55         H  0.34840742  0.02539509  0.21442622     0.06600
C56         C  0.36420169  0.28751145  0.25854833     0.03700
C57         C  0.34099096  0.32888598  0.27019605    -0.12500
C58         C  0.30202274  0.35054137  0.24182733     0.01200
C59         C  0.26744974  0.32350092  0.21435211    -0.11000
C60         C  0.28651176  0.27993302  0.20143283     0.03700
C61         C  0.33658525  0.26259365  0.22396928    -0.10400
H62         H  0.35891996  0.34726389  0.29844084     0.09300
H63         H  0.22746950  0.33761500  0.20166823     0.06800
H64         H  0.35290770  0.22983916  0.21547383     0.06600
C65         C  0.12208732  0.46105599  0.09017492     0.03700
C66         C  0.15861388  0.48886230  0.11591751    -0.12500
C67         C  0.21029301  0.47146690  0.13539676     0.01200
C68         C  0.22879615  0.42821309  0.12045118    -0.11000
C69         C  0.18949215  0.39894298  0.09916556     0.03700
C70         C  0.13452036  0.41592327  0.08808480    -0.10400
H71         H  0.14757829  0.02362835  0.12024835     0.09300
H72         H  0.27239651  0.41646072  0.12745656     0.06800
H73         H  0.10062373  0.39421781  0.07551029     0.06600
C74         C  0.13962192  0.28591881  0.07421720     0.03700
C75         C  0.16240029  0.32741213  0.06264291    -0.12500
C76         C  0.19978725  0.34983724  0.09167847     0.01200
C77         C  0.23364131  0.32356315  0.12033587    -0.11000
C78         C  0.21509734  0.27980988  0.13295661     0.03700
C79         C  0.16628767  0.26172408  0.10948266    -0.10400
H80         H  0.14479589  0.34541297  0.03409974     0.09300
H81         H  0.27290679  0.33831314  0.13360332     0.06800
H82         H  0.15008512  0.22896711  0.11792569     0.06600
C83         C  0.25048810  0.25096149  0.16734451    -0.01900
C84         C  0.36264704  0.03684437  0.07492229     0.03700
C85         C  0.33860938  0.07769850  0.06256696    -0.12500
C86         C  0.30013804  0.09983584  0.09106926     0.01200
C87         C  0.26587229  0.07315410  0.11906484    -0.11000
C88         C  0.28506097  0.02973090  0.13221424     0.03700
C89         C  0.33532780  0.01231356  0.10981574    -0.10400
H90         H  0.35592171  0.09554256  0.03381768     0.09300
H91         H  0.22598123  0.08741234  0.13183970     0.06800
H92         H  0.35208445  0.47983111  0.11870088     0.06600
C93         C  0.37523608  0.21209825  0.08876459     0.03700
C94         C  0.33930917  0.23933100  0.11540076    -0.12500
C95         C  0.28882215  0.22130912  0.13595358     0.01200
C96         C  0.27061081  0.17779697  0.12132439    -0.11000
C97         C  0.30956887  0.14908972  0.09877637     0.03700
C98         C  0.36372940  0.16683933  0.08672923    -0.10400
H99         H  0.34995016  0.27417378  0.11969148     0.09300
H100        H  0.22748261  0.16555675  0.12909708     0.06800
H101        H  0.39789986  0.14564026  0.07376018     0.06600
C102        C  0.24919238  0.50099156  0.16654080    -0.01900
O103        O  0.05636186  0.20074976  0.30276625    -0.73900
O104        O  0.94512497  0.23337493  0.05976238    -0.73900
O105        O  0.93966239  0.20198412  0.30791232    -0.74000
O106        O  0.06513928  0.23257507  0.05375500    -0.74000
O107        O  0.06224874  0.30012240  0.02321306    -0.73900
O108        O  0.93839922  0.26909312  0.27623504    -0.73900
O109        O  0.94400852  0.30057858  0.02835673    -0.73900
O110        O  0.05684790  0.26831088  0.27204178    -0.74000
Ni111      Ni  0.00149787  0.21472888  0.01540246     1.25400
Ni112      Ni  0.00019394  0.28712419  0.31593153     1.25400
C113        C  0.07558505  0.22829691  0.27322181     0.88300
C114        C  0.92492673  0.27293426  0.05802641     0.88200
C115        C  0.91910872  0.22935079  0.27867071     0.88300
C116        C  0.08630205  0.27172039  0.04964293     0.88400
O117        O  0.93541245  0.01736076  0.05694203    -0.73900
O118        O  0.06185096  0.05015417  0.31278747    -0.73900
O119        O  0.94284586  0.05122312  0.30772440    -0.74000
O120        O  0.05484421  0.01647952  0.06300026    -0.74000
O121        O  0.05606489  0.44993971  0.02976838    -0.73900
O122        O  0.94197586  0.48425188  0.27553614    -0.73900
O123        O  0.06308317  0.48371474  0.27950752    -0.73900
O124        O  0.93833571  0.45041048  0.02466208    -0.74000
Ni125      Ni  0.99886608  0.03634336  0.01930406     1.25400
Ni126      Ni  0.00014163  0.46467146  0.31793271     1.25400
C127        C  0.91435389  0.47830011  0.05173490     0.88300
C128        C  0.08502114  0.02246750  0.28490331     0.88200
C129        C  0.92017033  0.02317273  0.28006491     0.88300
C130        C  0.07471421  0.47688102  0.06028750     0.88400
C131        C  0.86630140  0.03689651  0.25590836     0.03700
C132        C  0.83890586  0.01241903  0.22105497    -0.12500
C133        C  0.78773045  0.02939359  0.19994616     0.01200
C134        C  0.76793285  0.07253525  0.21384158    -0.11000
C135        C  0.80186160  0.09923290  0.24203963     0.03700
C136        C  0.84134661  0.07709532  0.26954906    -0.10400
H137        H  0.85588031  0.48011578  0.21160356     0.09300
H138        H  0.72755193  0.08644346  0.20168001     0.06800
H139        H  0.85801234  0.09427657  0.29899216     0.06600
C140        C  0.87197082  0.21308113  0.24880140     0.03700
C141        C  0.86200760  0.16764585  0.24956769    -0.12500
C142        C  0.80905394  0.14890260  0.23605700     0.01200
C143        C  0.76978991  0.17708445  0.21321030    -0.11000
C144        C  0.78699284  0.22108053  0.19964873     0.03700
C145        C  0.83602321  0.23993432  0.22181884    -0.10400
H146        H  0.89684859  0.14696112  0.26213025     0.09300
H147        H  0.72746394  0.16405547  0.20423141     0.06800
H148        H  0.84595645  0.27493034  0.21799515     0.06600
C149        C  0.86128940  0.46382306  0.07588685     0.03700
C150        C  0.83803056  0.42264329  0.06364248    -0.12500
C151        C  0.80090651  0.39994272  0.09260790     0.01200
C152        C  0.76871523  0.42575858  0.12298099    -0.11000
C153        C  0.78676987  0.47000253  0.13484836     0.03700
C154        C  0.83519561  0.48794494  0.11132615    -0.10400
H155        H  0.85515503  0.40507317  0.03454867     0.09300
H156        H  0.73003915  0.41065193  0.13667421     0.06800
H157        H  0.85121736  0.02082930  0.11964696     0.06600
C158        C  0.87682887  0.28820176  0.08805734     0.03700
C159        C  0.86461435  0.33336668  0.08664727    -0.12500
C160        C  0.80975213  0.35047166  0.09785496     0.01200
C161        C  0.76961802  0.32100228  0.11779771    -0.11000
C162        C  0.78816020  0.27816119  0.13347240     0.03700
C163        C  0.84000830  0.26047711  0.11386259    -0.10400
H164        H  0.89884132  0.35516736  0.07488288     0.09300
H165        H  0.72609104  0.33292696  0.12494349     0.06800
H166        H  0.85122756  0.22581204  0.11847422     0.06600
C167        C  0.63683743  0.03613149  0.07566226     0.03700
C168        C  0.66153755  0.07662433  0.06287333    -0.12500
C169        C  0.69990077  0.09894116  0.09128355     0.01200
C170        C  0.73336439  0.07255727  0.12005108    -0.11000
C171        C  0.71403356  0.02918377  0.13336033     0.03700
C172        C  0.66377616  0.01176318  0.11090781    -0.10400
H173        H  0.64483145  0.09415432  0.03371861     0.09300
H174        H  0.77317716  0.08691011  0.13279498     0.06800
H175        H  0.64692199  0.47934750  0.11994142     0.06600
C176        C  0.62556872  0.21145084  0.08796075     0.03700
C177        C  0.66150044  0.23865000  0.11450210    -0.12500
C178        C  0.71208763  0.22067623  0.13481290     0.01200
C179        C  0.73029980  0.17716150  0.12029690    -0.11000
C180        C  0.69115346  0.14837983  0.09802516     0.03700
C181        C  0.63716295  0.16622321  0.08570437    -0.10400
H182        H  0.65057519  0.27340547  0.11902565     0.09300
H183        H  0.77328253  0.16485179  0.12845269     0.06800
H184        H  0.60299522  0.14506641  0.07270965     0.06600
C185        C  0.62468615  0.46301477  0.24503350     0.03700
C186        C  0.63545160  0.41764687  0.24616381    -0.12500
C187        C  0.69008311  0.39997489  0.23544000     0.01200
C188        C  0.73083144  0.42920843  0.21589306    -0.11000
C189        C  0.71251740  0.47207488  0.19990587     0.03700
C190        C  0.66146420  0.49030580  0.21936863    -0.10400
H191        H  0.60050572  0.39631919  0.25758325     0.09300
H192        H  0.77439410  0.41712953  0.20907065     0.06800
H193        H  0.65085396  0.02510006  0.21480762     0.06600
C194        C  0.63663943  0.28700238  0.25806353     0.03700
C195        C  0.66397087  0.26217829  0.22326505    -0.12500
C196        C  0.71304770  0.27990509  0.19964318     0.01200
C197        C  0.73058748  0.32431206  0.21102165    -0.11000
C198        C  0.69798205  0.35044966  0.24086015     0.03700
C199        C  0.66003606  0.32829253  0.26969061    -0.10400
H200        H  0.64822826  0.22911826  0.21538418     0.09300
H201        H  0.76920582  0.33936922  0.19719517     0.06800
H202        H  0.64281010  0.34633280  0.29843733     0.06600
C203        C  0.74987031  0.25001432  0.16667928    -0.01900
C204        C  0.75048497  0.50017963  0.16720799    -0.01900
O205        O  0.44103520  0.01942075  0.60567552    -0.73900
O206        O  0.55970728  0.05125651  0.35742120    -0.73900
O207        O  0.55928516  0.01920412  0.60618754    -0.74000
O208        O  0.44003722  0.05158858  0.35691573    -0.74000
O209        O  0.43875359  0.48439511  0.38825545    -0.73900
O210        O  0.55795375  0.45195095  0.63765477    -0.73900
O211        O  0.56039825  0.48399282  0.38859578    -0.74700
O212        O  0.44146924  0.45226745  0.63732288    -0.74000
Ni213      Ni  0.50003350  0.03803664  0.64763475     1.25400
Ni214      Ni  0.49962234  0.46580549  0.34749226     1.25400
C215        C  0.42200688  0.47954388  0.60761875     0.88300
C216        C  0.58269876  0.02276820  0.38445514     0.88200
C217        C  0.57790360  0.47924253  0.60818658     0.88300
C218        C  0.41673630  0.02324595  0.38390715     0.88400
O219        O  0.44136770  0.26822481  0.39498414    -0.73900
O220        O  0.56035698  0.30119925  0.64414730    -0.73900
O221        O  0.44070170  0.30152207  0.64435045    -0.74000
O222        O  0.55968892  0.26784855  0.39468866    -0.74000
O223        O  0.55827961  0.20099662  0.36208558    -0.73900
O224        O  0.43961913  0.23473377  0.61181620    -0.73900
O225        O  0.56103531  0.23432733  0.61180973    -0.73900
O226        O  0.44162300  0.20147936  0.36214973    -0.74000
Ni227      Ni  0.50053585  0.28734906  0.35354014     1.25400
Ni228      Ni  0.50011786  0.21554922  0.65241845     1.25400
C229        C  0.42210715  0.22845411  0.39224976     0.88300
C230        C  0.58319778  0.27311365  0.61648257     0.88200
C231        C  0.41771501  0.27357213  0.61664888     0.88300
C232        C  0.57842130  0.22793103  0.39192167     0.88400
C233        C  0.13802865  0.03683472  0.59314192     0.03700
C234        C  0.16025316  0.07872828  0.60397252    -0.12500
C235        C  0.19818149  0.10058611  0.57491045     0.01200
C236        C  0.23214854  0.07392112  0.54657299    -0.11000
C237        C  0.21363575  0.03006797  0.53422972     0.03700
C238        C  0.16495535  0.01218410  0.55804968    -0.10400
H239        H  0.14204603  0.09730979  0.63199423     0.09300
H240        H  0.27142718  0.08849615  0.53317573     0.06800
H241        H  0.14906683  0.47920506  0.55000518     0.06600
C242        C  0.12234421  0.21236015  0.57615365     0.03700
C243        C  0.13364446  0.16701183  0.57730558    -0.12500
C244        C  0.18870918  0.14966498  0.56718733     0.01200
C245        C  0.22895570  0.17863777  0.54670155    -0.11000
C246        C  0.21129024  0.22204864  0.53190777     0.03700
C247        C  0.15980288  0.23998979  0.55125826    -0.10400
H248        H  0.09903523  0.14544805  0.58888629     0.09300
H249        H  0.27248585  0.16652965  0.53994892     0.06800
H250        H  0.14953003  0.27492278  0.54734092     0.06600
C251        C  0.37545352  0.46323884  0.57736715     0.03700
C252        C  0.36499087  0.41782139  0.57843534    -0.12500
C253        C  0.31068093  0.39977330  0.56733501     0.01200
C254        C  0.27072630  0.42824912  0.54572744    -0.11000
C255        C  0.28805195  0.47192629  0.53126071     0.03700
C256        C  0.33849951  0.49039676  0.55162429    -0.10400
H257        H  0.39989742  0.39675190  0.59034153     0.09300
H258        H  0.22762689  0.41569160  0.53833337     0.06800
H259        H  0.34840764  0.02539490  0.54775974     0.06600
C260        C  0.36420168  0.28751161  0.59188170     0.03700
C261        C  0.34099079  0.32888599  0.60352945    -0.12500
C262        C  0.30202263  0.35054133  0.57516061     0.01200
C263        C  0.26744961  0.32350093  0.54768539    -0.11000
C264        C  0.28651154  0.27993308  0.53476612     0.03700
C265        C  0.33658520  0.26259381  0.55730259    -0.10400
H266        H  0.35891895  0.34726368  0.63177444     0.09300
H267        H  0.22746924  0.33761506  0.53500169     0.06800
H268        H  0.35290821  0.22983993  0.54880681     0.06600
C269        C  0.12208734  0.46105585  0.42350840     0.03700
C270        C  0.15861409  0.48886225  0.44925078    -0.12500
C271        C  0.21029302  0.47146676  0.46873014     0.01200
C272        C  0.22879617  0.42821309  0.45378439    -0.11000
C273        C  0.18949211  0.39894305  0.43249903     0.03700
C274        C  0.13452051  0.41592327  0.42141812    -0.10400
H275        H  0.14757844  0.02362846  0.45358168     0.09300
H276        H  0.27239579  0.41646053  0.46078987     0.06800
H277        H  0.10062394  0.39421788  0.40884434     0.06600
C278        C  0.13962203  0.28591871  0.40755056     0.03700
C279        C  0.16240038  0.32741230  0.39597641    -0.12500
C280        C  0.19978735  0.34983731  0.42501199     0.01200
C281        C  0.23364126  0.32356311  0.45366931    -0.11000
C282        C  0.21509712  0.27980964  0.46629008     0.03700
C283        C  0.16628747  0.26172388  0.44281603    -0.10400
H284        H  0.14479646  0.34541303  0.36743329     0.09300
H285        H  0.27290679  0.33831314  0.46693674     0.06800
H286        H  0.15008434  0.22896645  0.45125909     0.06600
C287        C  0.25048803  0.25096140  0.50067787    -0.01900
C288        C  0.36264711  0.03684443  0.40825563     0.03700
C289        C  0.33860948  0.07769864  0.39590033    -0.12500
C290        C  0.30013840  0.09983590  0.42440278     0.01200
C291        C  0.26587248  0.07315419  0.45239830    -0.11000
C292        C  0.28506097  0.02973089  0.46554761     0.03700
C293        C  0.33532766  0.01231354  0.44314905    -0.10400
H294        H  0.35592231  0.09554298  0.36715155     0.09300
H295        H  0.22598218  0.08741246  0.46517311     0.06800
H296        H  0.35208422  0.47983096  0.45203411     0.06600
C297        C  0.37523597  0.21209850  0.42209801     0.03700
C298        C  0.33930906  0.23933129  0.44873402    -0.12500
C299        C  0.28882225  0.22130930  0.46928690     0.01200
C300        C  0.27061092  0.17779710  0.45465772    -0.11000
C301        C  0.30956892  0.14908983  0.43210975     0.03700
C302        C  0.36372927  0.16683953  0.42006266    -0.10400
H303        H  0.34995008  0.27417449  0.45302465     0.09300
H304        H  0.22748284  0.16555683  0.46243068     0.06800
H305        H  0.39790016  0.14564038  0.40709404     0.06600
C306        C  0.24919250  0.50099149  0.49987413    -0.01900
O307        O  0.05636176  0.20074988  0.63609972    -0.73900
O308        O  0.94512520  0.23337487  0.39309587    -0.73900
O309        O  0.93966230  0.20198422  0.64124554    -0.74000
O310        O  0.06513939  0.23257516  0.38708836    -0.74000
O311        O  0.06224896  0.30012235  0.35654603    -0.73900
O312        O  0.93839922  0.26909327  0.60956847    -0.73900
O313        O  0.94400861  0.30057859  0.36168992    -0.73900
O314        O  0.05684806  0.26831105  0.60537527    -0.74000
Ni315      Ni  0.00149801  0.21472894  0.34873582     1.25400
Ni316      Ni  0.00019392  0.28712424  0.64926500     1.25400
C317        C  0.07558492  0.22829702  0.60655524     0.88300
C318        C  0.92492702  0.27293427  0.39135977     0.88200
C319        C  0.91910862  0.22935095  0.61200404     0.88300
C320        C  0.08630212  0.27172050  0.38297618     0.88400
O321        O  0.93541235  0.01736080  0.39027528    -0.73900
O322        O  0.06185086  0.05015414  0.64612075    -0.73900
O323        O  0.94284585  0.05122318  0.64105771    -0.74000
O324        O  0.05484412  0.01647958  0.39633371    -0.74000
O325        O  0.05606467  0.44993969  0.36310178    -0.73900
O326        O  0.94197578  0.48425188  0.60886944    -0.73900
O327        O  0.06308304  0.48371481  0.61284069    -0.73900
O328        O  0.93833565  0.45041038  0.35799536    -0.74000
Ni329      Ni  0.99886599  0.03634337  0.35263738     1.25400
Ni330      Ni  0.00014153  0.46467142  0.65126600     1.25400
C331        C  0.91435379  0.47830005  0.38506808     0.88300
C332        C  0.08502078  0.02246750  0.61823643     0.88200
C333        C  0.92017018  0.02317272  0.61339829     0.88300
C334        C  0.07471429  0.47688098  0.39362088     0.88400
C335        C  0.86630126  0.03689654  0.58924182     0.03700
C336        C  0.83890590  0.01241903  0.55438831    -0.12500
C337        C  0.78773048  0.02939353  0.53327949     0.01200
C338        C  0.76793284  0.07253532  0.54717479    -0.11000
C339        C  0.80186157  0.09923297  0.57537294     0.03700
C340        C  0.84134664  0.07709550  0.60288237    -0.10400
H341        H  0.85588090  0.48011565  0.54493669     0.09300
H342        H  0.72755208  0.08644368  0.53501316     0.06800
H343        H  0.85801172  0.09427653  0.63232602     0.06600
C344        C  0.87197086  0.21308131  0.58213450     0.03700
C345        C  0.86200757  0.16764588  0.58290079    -0.12500
C346        C  0.80905370  0.14890259  0.56939026     0.01200
C347        C  0.76978972  0.17708438  0.54654363    -0.11000
C348        C  0.78699260  0.22108059  0.53298210     0.03700
C349        C  0.83602322  0.23993442  0.55515195    -0.10400
H350        H  0.89684828  0.14696114  0.59546390     0.09300
H351        H  0.72746298  0.16405529  0.53756487     0.06800
H352        H  0.84595642  0.27493091  0.55132800     0.06600
C353        C  0.86128947  0.46382290  0.40921990     0.03700
C354        C  0.83803057  0.42264312  0.39697556    -0.12500
C355        C  0.80090660  0.39994265  0.42594087     0.01200
C356        C  0.76871543  0.42575862  0.45631413    -0.11000
C357        C  0.78677014  0.47000255  0.46818158     0.03700
C358        C  0.83519579  0.48794490  0.44465928    -0.10400
H359        H  0.85515520  0.40507256  0.36788129     0.09300
H360        H  0.73003940  0.41065225  0.47000715     0.06800
H361        H  0.85121739  0.02082942  0.45298037     0.06600
C362        C  0.87682892  0.28820141  0.42139054     0.03700
C363        C  0.86461434  0.33336648  0.41998048    -0.12500
C364        C  0.80975230  0.35047154  0.43118828     0.01200
C365        C  0.76961821  0.32100211  0.45113097    -0.11000
C366        C  0.78816061  0.27816089  0.46680563     0.03700
C367        C  0.84000850  0.26047673  0.44719579    -0.10400
H368        H  0.89884104  0.35516691  0.40821602     0.09300
H369        H  0.72609184  0.33292637  0.45827656     0.06800
H370        H  0.85122776  0.22581120  0.45180741     0.06600
C371        C  0.63683756  0.03613141  0.40899566     0.03700
C372        C  0.66153761  0.07662427  0.39620664    -0.12500
C373        C  0.69990096  0.09894115  0.42461677     0.01200
C374        C  0.73336448  0.07255724  0.45338435    -0.11000
C375        C  0.71403369  0.02918365  0.46669369     0.03700
C376        C  0.66377611  0.01176318  0.44424130    -0.10400
H377        H  0.64483162  0.09415415  0.36705195     0.09300
H378        H  0.77317738  0.08691010  0.46612818     0.06800
H379        H  0.64692213  0.47934752  0.45327442     0.06600
C380        C  0.62556878  0.21145088  0.42129394     0.03700
C381        C  0.66150038  0.23865004  0.44783532    -0.12500
C382        C  0.71208759  0.22067633  0.46814620     0.01200
C383        C  0.73029992  0.17716156  0.45363033    -0.11000
C384        C  0.69115363  0.14837991  0.43135848     0.03700
C385        C  0.63716318  0.16622325  0.41903758    -0.10400
H386        H  0.65057510  0.27340549  0.45235874     0.09300
H387        H  0.77328199  0.16485176  0.46178663     0.06800
H388        H  0.60299589  0.14506657  0.40604284     0.06600
C389        C  0.62468608  0.46301464  0.57836683     0.03700
C390        C  0.63545151  0.41764686  0.57949703    -0.12500
C391        C  0.69008304  0.39997484  0.56877327     0.01200
C392        C  0.73083147  0.42920838  0.54922633    -0.11000
C393        C  0.71251739  0.47207480  0.53323926     0.03700
C394        C  0.66146406  0.49030569  0.55270201    -0.10400
H395        H  0.60050548  0.39631922  0.59091625     0.09300
H396        H  0.77439414  0.41712973  0.54240408     0.06800
H397        H  0.65085401  0.02509993  0.54814081     0.06600
C398        C  0.63663934  0.28700249  0.59139691     0.03700
C399        C  0.66397095  0.26217838  0.55659846    -0.12500
C400        C  0.71304765  0.27990523  0.53297643     0.01200
C401        C  0.73058725  0.32431213  0.54435499    -0.11000
C402        C  0.69798179  0.35044966  0.57419344     0.03700
C403        C  0.66003605  0.32829256  0.60302399    -0.10400
H404        H  0.64822849  0.22911834  0.54871760     0.09300
H405        H  0.76920494  0.33936982  0.53052786     0.06800
H406        H  0.64280988  0.34633319  0.63177076     0.06600
C407        C  0.74987035  0.25001440  0.50001255    -0.01900
C408        C  0.75048492  0.50017962  0.50054124    -0.01900
O409        O  0.44103520  0.01942080  0.93900897    -0.73900
O410        O  0.55970710  0.05125651  0.69075438    -0.73900
O411        O  0.55928505  0.01920411  0.93952079    -0.74000
O412        O  0.44003734  0.05158849  0.69024907    -0.74000
O413        O  0.43875358  0.48439507  0.72158867    -0.73900
O414        O  0.55795389  0.45195082  0.97098827    -0.73900
O415        O  0.56039824  0.48399281  0.72192917    -0.74700
O416        O  0.44146941  0.45226744  0.97065634    -0.74000
Ni417      Ni  0.50003344  0.03803660  0.98096817     1.25400
Ni418      Ni  0.49962226  0.46580550  0.68082558     1.25400
C419        C  0.42200697  0.47954380  0.94095220     0.88300
C420        C  0.58269858  0.02276818  0.71778840     0.88200
C421        C  0.57790353  0.47924244  0.94152001     0.88300
C422        C  0.41673619  0.02324589  0.71724046     0.88400
O423        O  0.44136780  0.26822463  0.72831743    -0.73900
O424        O  0.56035702  0.30119941  0.97748068    -0.73900
O425        O  0.44070141  0.30152222  0.97768372    -0.74000
O426        O  0.55968897  0.26784857  0.72802190    -0.74000
O427        O  0.55827984  0.20099664  0.69541889    -0.73900
O428        O  0.43961903  0.23473390  0.94514954    -0.73900
O429        O  0.56103517  0.23432741  0.94514300    -0.73900
O430        O  0.44162325  0.20147931  0.69548308    -0.74000
Ni431      Ni  0.50053593  0.28734908  0.68687346     1.25400
Ni432      Ni  0.50011774  0.21554925  0.98575175     1.25400
C433        C  0.42210748  0.22845391  0.72558321     0.88300
C434        C  0.58319768  0.27311376  0.94981587     0.88200
C435        C  0.41771476  0.27357221  0.94998225     0.88300
C436        C  0.57842158  0.22793110  0.72525491     0.88400
C437        C  0.13802866  0.03683491  0.92647536     0.03700
C438        C  0.16025326  0.07872830  0.93730598    -0.12500
C439        C  0.19818166  0.10058616  0.90824381     0.01200
C440        C  0.23214891  0.07392127  0.87990628    -0.11000
C441        C  0.21363604  0.03006823  0.86756309     0.03700
C442        C  0.16495543  0.01218430  0.89138305    -0.10400
H443        H  0.14204646  0.09730988  0.96532785     0.09300
H444        H  0.27142763  0.08849623  0.86650912     0.06800
H445        H  0.14906686  0.47920503  0.88333848     0.06600
C446        C  0.12234466  0.21235999  0.90948703     0.03700
C447        C  0.13364478  0.16701178  0.91063881    -0.12500
C448        C  0.18870952  0.14966502  0.90052065     0.01200
C449        C  0.22895600  0.17863783  0.88003494    -0.11000
C450        C  0.21129053  0.22204849  0.86524100     0.03700
C451        C  0.15980330  0.23998955  0.88459158    -0.10400
H452        H  0.09903584  0.14544816  0.92221926     0.09300
H453        H  0.27248608  0.16652964  0.87328224     0.06800
H454        H  0.14953068  0.27492211  0.88067456     0.06600
C455        C  0.37545356  0.46323863  0.91070064     0.03700
C456        C  0.36499095  0.41782124  0.91176869    -0.12500
C457        C  0.31068095  0.39977328  0.90066841     0.01200
C458        C  0.27072619  0.42824915  0.87906090    -0.11000
C459        C  0.28805177  0.47192628  0.86459417     0.03700
C460        C  0.33849948  0.49039652  0.88495776    -0.10400
H461        H  0.39989780  0.39675153  0.92367488     0.09300
H462        H  0.22762683  0.41569128  0.87166637     0.06800
H463        H  0.34840699  0.02539491  0.88109311     0.06600
C464        C  0.36420167  0.28751161  0.92521500     0.03700
C465        C  0.34099074  0.32888597  0.93686295    -0.12500
C466        C  0.30202273  0.35054132  0.90849408     0.01200
C467        C  0.26744982  0.32350091  0.88101869    -0.11000
C468        C  0.28651181  0.27993304  0.86809942     0.03700
C469        C  0.33658526  0.26259379  0.89063594    -0.10400
H470        H  0.35891880  0.34726355  0.96510792     0.09300
H471        H  0.22747015  0.33761487  0.86833493     0.06800
H472        H  0.35290801  0.22983973  0.88214033     0.06600
C473        C  0.12208741  0.46105601  0.75684161     0.03700
C474        C  0.15861420  0.48886227  0.78258410    -0.12500
C475        C  0.21029318  0.47146674  0.80206346     0.01200
C476        C  0.22879622  0.42821302  0.78711767    -0.11000
C477        C  0.18949212  0.39894293  0.76583245     0.03700
C478        C  0.13452045  0.41592336  0.75475150    -0.10400
H479        H  0.14757796  0.02362847  0.78691505     0.09300
H480        H  0.27239649  0.41646013  0.79412369     0.06800
H481        H  0.10062343  0.39421786  0.74217785     0.06600
C482        C  0.13962202  0.28591873  0.74088383     0.03700
C483        C  0.16240024  0.32741232  0.72930971    -0.12500
C484        C  0.19978703  0.34983724  0.75834518     0.01200
C485        C  0.23364090  0.32356301  0.78700257    -0.11000
C486        C  0.21509687  0.27980962  0.79962332     0.03700
C487        C  0.16628755  0.26172382  0.77614930    -0.10400
H488        H  0.14479594  0.34541333  0.70076657     0.09300
H489        H  0.27290580  0.33831276  0.80026986     0.06800
H490        H  0.15008506  0.22896640  0.78459218     0.06600
C491        C  0.25048801  0.25096147  0.83401118    -0.01900
C492        C  0.36264706  0.03684474  0.74158890     0.03700
C493        C  0.33860949  0.07769880  0.72923348    -0.12500
C494        C  0.30013813  0.09983607  0.75773596     0.01200
C495        C  0.26587222  0.07315429  0.78573158    -0.11000
C496        C  0.28506065  0.02973113  0.79888092     0.03700
C497        C  0.33532761  0.01231378  0.77648241    -0.10400
H498        H  0.35592219  0.09554306  0.70048412     0.09300
H499        H  0.22598112  0.08741281  0.79850668     0.06800
H500        H  0.35208491  0.47983015  0.78536783     0.06600
C501        C  0.37523590  0.21209827  0.75543123     0.03700
C502        C  0.33930902  0.23933101  0.78206738    -0.12500
C503        C  0.28882191  0.22130909  0.80262031     0.01200
C504        C  0.27061063  0.17779704  0.78799105    -0.11000
C505        C  0.30956865  0.14908986  0.76544309     0.03700
C506        C  0.36372919  0.16683947  0.75339591    -0.10400
H507        H  0.34995051  0.27417377  0.78635821     0.09300
H508        H  0.22748189  0.16555643  0.79576410     0.06800
H509        H  0.39789990  0.14564033  0.74042714     0.06600
C510        C  0.24919245  0.50099152  0.83320754    -0.01900
O511        O  0.05636160  0.20074970  0.96943290    -0.73900
O512        O  0.94512508  0.23337493  0.72642921    -0.73900
O513        O  0.93966236  0.20198408  0.97457877    -0.74000
O514        O  0.06513929  0.23257521  0.72042173    -0.74000
O515        O  0.06224881  0.30012247  0.68987965    -0.73900
O516        O  0.93839916  0.26909319  0.94290183    -0.73900
O517        O  0.94400848  0.30057873  0.69502339    -0.73900
O518        O  0.05684790  0.26831093  0.93870858    -0.74000
Ni519      Ni  0.00149788  0.21472895  0.68206921     1.25400
Ni520      Ni  0.00019390  0.28712415  0.98259835     1.25400
C521        C  0.07558490  0.22829690  0.93988850     0.88300
C522        C  0.92492684  0.27293433  0.72469315     0.88200
C523        C  0.91910857  0.22935086  0.94533736     0.88300
C524        C  0.08630194  0.27172057  0.71630976     0.88400
O525        O  0.93541229  0.01736082  0.72360859    -0.73900
O526        O  0.06185109  0.05015416  0.97945415    -0.73900
O527        O  0.94284591  0.05122328  0.97439118    -0.74000
O528        O  0.05484412  0.01647954  0.72966700    -0.74000
O529        O  0.05606468  0.44993976  0.69643505    -0.73900
O530        O  0.94197595  0.48425196  0.94220285    -0.73900
O531        O  0.06308304  0.48371486  0.94617414    -0.73900
O532        O  0.93833547  0.45041039  0.69132868    -0.74000
Ni533      Ni  0.99886597  0.03634336  0.68597068     1.25400
Ni534      Ni  0.00014164  0.46467147  0.98459942     1.25400
C535        C  0.91435365  0.47830006  0.71840153     0.88300
C536        C  0.08502090  0.02246755  0.95156977     0.88200
C537        C  0.92017016  0.02317284  0.94673167     0.88300
C538        C  0.07471418  0.47688105  0.72695418     0.88400
C539        C  0.86630131  0.03689661  0.92257524     0.03700
C540        C  0.83890593  0.01241911  0.88772173    -0.12500
C541        C  0.78773050  0.02939362  0.86661286     0.01200
C542        C  0.76793276  0.07253536  0.88050818    -0.11000
C543        C  0.80186153  0.09923298  0.90870635     0.03700
C544        C  0.84134659  0.07709544  0.93621580    -0.10400
H545        H  0.85588038  0.48011565  0.87827015     0.09300
H546        H  0.72755194  0.08644367  0.86834655     0.06800
H547        H  0.85801191  0.09427664  0.96565947     0.06600
C548        C  0.87197083  0.21308128  0.91546788     0.03700
C549        C  0.86200766  0.16764583  0.91623412    -0.12500
C550        C  0.80905384  0.14890264  0.90272359     0.01200
C551        C  0.76978975  0.17708456  0.87987696    -0.11000
C552        C  0.78699280  0.22108079  0.86631538     0.03700
C553        C  0.83602331  0.23993448  0.88848534    -0.10400
H554        H  0.89684854  0.14696104  0.92879705     0.09300
H555        H  0.72746373  0.16405547  0.87089787     0.06800
H556        H  0.84595669  0.27493103  0.88466170     0.06600
C557        C  0.86128936  0.46382289  0.74255349     0.03700
C558        C  0.83803040  0.42264332  0.73030908    -0.12500
C559        C  0.80090639  0.39994281  0.75927451     0.01200
C560        C  0.76871499  0.42575856  0.78964754    -0.11000
C561        C  0.78676978  0.47000240  0.80151505     0.03700
C562        C  0.83519547  0.48794482  0.77799267    -0.10400
H563        H  0.85515461  0.40507308  0.70121519     0.09300
H564        H  0.73003887  0.41065186  0.80334064     0.06800
H565        H  0.85121744  0.02082999  0.78631387     0.06600
C566        C  0.87682883  0.28820169  0.75472394     0.03700
C567        C  0.86461413  0.33336668  0.75331382    -0.12500
C568        C  0.80975215  0.35047174  0.76452164     0.01200
C569        C  0.76961812  0.32100225  0.78446427    -0.11000
C570        C  0.78816052  0.27816120  0.80013904     0.03700
C571        C  0.84000833  0.26047697  0.78052915    -0.10400
H572        H  0.89884088  0.35516729  0.74154948     0.09300
H573        H  0.72609180  0.33292667  0.79161020     0.06800
H574        H  0.85122764  0.22581194  0.78514099     0.06600
C575        C  0.63683747  0.03613152  0.74232884     0.03700
C576        C  0.66153759  0.07662449  0.72953997    -0.12500
C577        C  0.69990085  0.09894129  0.75795016     0.01200
C578        C  0.73336437  0.07255721  0.78671763    -0.11000
C579        C  0.71403355  0.02918374  0.80002698     0.03700
C580        C  0.66377619  0.01176323  0.77757451    -0.10400
H581        H  0.64483123  0.09415470  0.70038524     0.09300
H582        H  0.77317716  0.08690996  0.79946166     0.06800
H583        H  0.64692167  0.47934815  0.78660822     0.06600
C584        C  0.62556905  0.21145114  0.75462745     0.03700
C585        C  0.66150048  0.23865018  0.78116873    -0.12500
C586        C  0.71208771  0.22067646  0.80147964     0.01200
C587        C  0.73029998  0.17716168  0.78696363    -0.11000
C588        C  0.69115393  0.14838007  0.76469200     0.03700
C589        C  0.63716345  0.16622347  0.75237113    -0.10400
H590        H  0.65057529  0.27340611  0.78569174     0.09300
H591        H  0.77328273  0.16485169  0.79511992     0.06800
H592        H  0.60299643  0.14506704  0.73937661     0.06600
C593        C  0.62468590  0.46301477  0.91170022     0.03700
C594        C  0.63545145  0.41764690  0.91283041    -0.12500
C595        C  0.69008272  0.39997488  0.90210663     0.01200
C596        C  0.73083106  0.42920858  0.88255964    -0.11000
C597        C  0.71251702  0.47207513  0.86657261     0.03700
C598        C  0.66146388  0.49030585  0.88603537    -0.10400
H599        H  0.60050516  0.39631905  0.92424922     0.09300
H600        H  0.77439312  0.41713009  0.87573741     0.06800
H601        H  0.65085440  0.02510016  0.88147419     0.06600
C602        C  0.63663926  0.28700238  0.92473021     0.03700
C603        C  0.66397088  0.26217827  0.88993174    -0.12500
C604        C  0.71304779  0.27990512  0.86630988     0.01200
C605        C  0.73058739  0.32431210  0.87768838    -0.11000
C606        C  0.69798183  0.35044961  0.90752685     0.03700
C607        C  0.66003600  0.32829246  0.93635739    -0.10400
H608        H  0.64822840  0.22911777  0.88205102     0.09300
H609        H  0.76920584  0.33936961  0.86386168     0.06800
H610        H  0.64280924  0.34633330  0.96510398     0.06600
C611        C  0.74987041  0.25001451  0.83334591    -0.01900
C612        C  0.75048493  0.50017968  0.83387468    -0.01900
O613        O  0.44103524  0.51942075  0.27234224    -0.73900
O614        O  0.55970721  0.55125661  0.02408786    -0.73900
O615        O  0.55928506  0.51920411  0.27285420    -0.74000
O616        O  0.44003724  0.55158848  0.02358233    -0.74000
O617        O  0.43875361  0.98439512  0.05492202    -0.73900
O618        O  0.55795395  0.95195084  0.30432154    -0.73900
O619        O  0.56039838  0.98399287  0.05526242    -0.74700
O620        O  0.44146945  0.95226736  0.30398961    -0.74000
Ni621      Ni  0.50003346  0.53803659  0.31430145     1.25400
Ni622      Ni  0.49962230  0.96580552  0.01415888     1.25400
C623        C  0.42200692  0.97954391  0.27428558     0.88300
C624        C  0.58269857  0.52276818  0.05112184     0.88200
C625        C  0.57790351  0.97924248  0.27485325     0.88300
C626        C  0.41673626  0.52324593  0.05057377     0.88400
O627        O  0.44136778  0.76822455  0.06165081    -0.73900
O628        O  0.56035702  0.80119941  0.31081404    -0.73900
O629        O  0.44070154  0.80152203  0.31101695    -0.74000
O630        O  0.55968896  0.76784844  0.06135518    -0.74000
O631        O  0.55827992  0.70099660  0.02875223    -0.73900
O632        O  0.43961912  0.73473378  0.27848292    -0.73900
O633        O  0.56103529  0.73432739  0.27847636    -0.73900
O634        O  0.44162327  0.70147928  0.02881639    -0.74000
Ni635      Ni  0.50053590  0.78734905  0.02020683     1.25400
Ni636      Ni  0.50011783  0.71554923  0.31908511     1.25400
C637        C  0.42210751  0.72845384  0.05891657     0.88300
C638        C  0.58319777  0.77311376  0.28314925     0.88200
C639        C  0.41771489  0.77357207  0.28331548     0.88300
C640        C  0.57842149  0.72793097  0.05858835     0.88400
C641        C  0.13802859  0.53683481  0.25980866     0.03700
C642        C  0.16025328  0.57872830  0.27063932    -0.12500
C643        C  0.19818180  0.60058609  0.24157723     0.01200
C644        C  0.23214878  0.57392109  0.21323962    -0.11000
C645        C  0.21363585  0.53006798  0.20089643     0.03700
C646        C  0.16495527  0.51218415  0.22471640    -0.10400
H647        H  0.14204658  0.59730987  0.29866125     0.09300
H648        H  0.27142754  0.58849603  0.19984247     0.06800
H649        H  0.14906708  0.97920513  0.21667187     0.06600
C650        C  0.12234466  0.71235990  0.24282046     0.03700
C651        C  0.13364483  0.66701173  0.24397218    -0.12500
C652        C  0.18870972  0.64966494  0.23385395     0.01200
C653        C  0.22895621  0.67863769  0.21336822    -0.11000
C654        C  0.21129077  0.72204840  0.19857443     0.03700
C655        C  0.15980326  0.73998942  0.21792493    -0.10400
H656        H  0.09903583  0.64544814  0.25555269     0.09300
H657        H  0.27248678  0.66652946  0.20661553     0.06800
H658        H  0.14953068  0.77492199  0.21400800     0.06600
C659        C  0.37545376  0.96323878  0.24403377     0.03700
C660        C  0.36499101  0.91782136  0.24510204    -0.12500
C661        C  0.31068106  0.89977329  0.23400171     0.01200
C662        C  0.27072628  0.92824913  0.21239422    -0.11000
C663        C  0.28805197  0.97192626  0.19792739     0.03700
C664        C  0.33849954  0.99039662  0.21829099    -0.10400
H665        H  0.39989796  0.89675169  0.25700752     0.09300
H666        H  0.22762684  0.91569168  0.20500029     0.06800
H667        H  0.34840694  0.52539510  0.21442631     0.06600
C668        C  0.36420177  0.78751134  0.25854813     0.03700
C669        C  0.34099092  0.82888585  0.27019612    -0.12500
C670        C  0.30202289  0.85054126  0.24182727     0.01200
C671        C  0.26744975  0.82350087  0.21435210    -0.11000
C672        C  0.28651180  0.77993283  0.20143276     0.03700
C673        C  0.33658530  0.76259347  0.22396917    -0.10400
H674        H  0.35891945  0.84726348  0.29844091     0.09300
H675        H  0.22747006  0.83761518  0.20166817     0.06800
H676        H  0.35290816  0.72983887  0.21547362     0.06600
C677        C  0.12208734  0.96105590  0.09017486     0.03700
C678        C  0.15861402  0.98886219  0.11591745    -0.12500
C679        C  0.21029311  0.97146677  0.13539671     0.01200
C680        C  0.22879614  0.92821301  0.12045109    -0.11000
C681        C  0.18949208  0.89894297  0.09916562     0.03700
C682        C  0.13452039  0.91592328  0.08808486    -0.10400
H683        H  0.14757785  0.52362859  0.12024852     0.09300
H684        H  0.27239638  0.91646058  0.12745644     0.06800
H685        H  0.10062351  0.89421769  0.07551063     0.06600
C686        C  0.13962205  0.78591875  0.07421718     0.03700
C687        C  0.16240031  0.82741223  0.06264312    -0.12500
C688        C  0.19978731  0.84983732  0.09167860     0.01200
C689        C  0.23364128  0.82356324  0.12033599    -0.11000
C690        C  0.21509710  0.77980989  0.13295673     0.03700
C691        C  0.16628752  0.76172395  0.10948266    -0.10400
H692        H  0.14479645  0.84541286  0.03409993     0.09300
H693        H  0.27290682  0.83831298  0.13360320     0.06800
H694        H  0.15008491  0.72896697  0.11792555     0.06600
C695        C  0.25048808  0.75096146  0.16734450    -0.01900
C696        C  0.36264698  0.53684470  0.07492215     0.03700
C697        C  0.33860914  0.57769873  0.06256682    -0.12500
C698        C  0.30013805  0.59983605  0.09106932     0.01200
C699        C  0.26587210  0.57315432  0.11906490    -0.11000
C700        C  0.28506071  0.52973116  0.13221431     0.03700
C701        C  0.33532751  0.51231376  0.10981566    -0.10400
H702        H  0.35592182  0.59554315  0.03381741     0.09300
H703        H  0.22598128  0.58741287  0.13184005     0.06800
H704        H  0.35208480  0.97983051  0.11870082     0.06600
C705        C  0.37523606  0.71209813  0.08876459     0.03700
C706        C  0.33930916  0.73933095  0.11540074    -0.12500
C707        C  0.28882203  0.72130909  0.13595358     0.01200
C708        C  0.27061073  0.67779701  0.12132437    -0.11000
C709        C  0.30956881  0.64908976  0.09877635     0.03700
C710        C  0.36372942  0.66683931  0.08672924    -0.10400
H711        H  0.34995064  0.77417375  0.11969159     0.09300
H712        H  0.22748188  0.66555675  0.12909707     0.06800
H713        H  0.39790041  0.64564003  0.07376038     0.06600
C714        C  0.24919256  0.00099152  0.16654075    -0.01900
O715        O  0.05636166  0.70074969  0.30276648    -0.73900
O716        O  0.94512516  0.73337475  0.05976240    -0.73900
O717        O  0.93966235  0.70198409  0.30791227    -0.74000
O718        O  0.06513938  0.73257519  0.05375499    -0.74000
O719        O  0.06224882  0.80012246  0.02321292    -0.73900
O720        O  0.93839925  0.76909327  0.27623512    -0.73900
O721        O  0.94400860  0.80057857  0.02835671    -0.73900
O722        O  0.05684796  0.76831086  0.27204202    -0.74000
Ni723      Ni  0.00149796  0.71472889  0.01540246     1.25400
Ni724      Ni  0.00019394  0.78712415  0.31593170     1.25400
C725        C  0.07558492  0.72829683  0.27322200     0.88300
C726        C  0.92492699  0.77293418  0.05802648     0.88200
C727        C  0.91910860  0.72935091  0.27867079     0.88300
C728        C  0.08630206  0.77172052  0.04964294     0.88400
O729        O  0.93541241  0.51736088  0.05694194    -0.73900
O730        O  0.06185107  0.55015417  0.31278743    -0.73900
O731        O  0.94284590  0.55122322  0.30772443    -0.74000
O732        O  0.05484407  0.51647954  0.06300031    -0.74000
O733        O  0.05606465  0.94993970  0.02976839    -0.73900
O734        O  0.94197603  0.98425193  0.27553628    -0.73900
O735        O  0.06308314  0.98371490  0.27950741    -0.73900
O736        O  0.93833560  0.95041033  0.02466202    -0.74000
Ni737      Ni  0.99886600  0.53634342  0.01930405     1.25400
Ni738      Ni  0.00014171  0.96467144  0.31793273     1.25400
C739        C  0.91435375  0.97830004  0.05173480     0.88300
C740        C  0.08502095  0.52246745  0.28490319     0.88200
C741        C  0.92017024  0.52317275  0.28006494     0.88300
C742        C  0.07471418  0.97688099  0.06028748     0.88400
C743        C  0.86630132  0.53689679  0.25590861     0.03700
C744        C  0.83890579  0.51241929  0.22105509    -0.12500
C745        C  0.78773029  0.52939384  0.19994622     0.01200
C746        C  0.76793262  0.57253545  0.21384159    -0.11000
C747        C  0.80186150  0.59923302  0.24203976     0.03700
C748        C  0.84134659  0.57709552  0.26954926    -0.10400
H749        H  0.85588057  0.98011523  0.21160333     0.09300
H750        H  0.72755182  0.58644404  0.20167971     0.06800
H751        H  0.85801190  0.59427680  0.29899295     0.06600
C752        C  0.87197091  0.71308107  0.24880132     0.03700
C753        C  0.86200778  0.66764579  0.24956760    -0.12500
C754        C  0.80905399  0.64890262  0.23605704     0.01200
C755        C  0.76978986  0.67708456  0.21321037    -0.11000
C756        C  0.78699276  0.72108066  0.19964878     0.03700
C757        C  0.83602326  0.73993426  0.22181875    -0.10400
H758        H  0.89684871  0.64696102  0.26213068     0.09300
H759        H  0.72746376  0.66405564  0.20423173     0.06800
H760        H  0.84595657  0.77493025  0.21799512     0.06600
C761        C  0.86128944  0.96382271  0.07588669     0.03700
C762        C  0.83803056  0.92264316  0.06364233    -0.12500
C763        C  0.80090673  0.89994269  0.09260787     0.01200
C764        C  0.76871511  0.92575844  0.12298092    -0.11000
C765        C  0.78676979  0.97000228  0.13484833     0.03700
C766        C  0.83519550  0.98794471  0.11132592    -0.10400
H767        H  0.85515545  0.90507264  0.03454853     0.09300
H768        H  0.73003924  0.91065171  0.13667405     0.06800
H769        H  0.85121700  0.52083019  0.11964697     0.06600
C770        C  0.87682891  0.78820160  0.08805734     0.03700
C771        C  0.86461445  0.83336667  0.08664730    -0.12500
C772        C  0.80975238  0.85047169  0.09785495     0.01200
C773        C  0.76961835  0.82100222  0.11779764    -0.11000
C774        C  0.78816058  0.77816112  0.13347239     0.03700
C775        C  0.84000840  0.76047690  0.11386262    -0.10400
H776        H  0.89884117  0.85516711  0.07488255     0.09300
H777        H  0.72609197  0.83292672  0.12494351     0.06800
H778        H  0.85122756  0.72581176  0.11847438     0.06600
C779        C  0.63683744  0.53613136  0.07566235     0.03700
C780        C  0.66153756  0.57662427  0.06287348    -0.12500
C781        C  0.69990084  0.59894104  0.09128364     0.01200
C782        C  0.73336439  0.57255711  0.12005107    -0.11000
C783        C  0.71403351  0.52918366  0.13336041     0.03700
C784        C  0.66377617  0.51176314  0.11090789    -0.10400
H785        H  0.64483152  0.59415428  0.03371882     0.09300
H786        H  0.77317726  0.58690990  0.13279496     0.06800
H787        H  0.64692162  0.97934814  0.11994159     0.06600
C788        C  0.62556904  0.71145099  0.08796086     0.03700
C789        C  0.66150054  0.73865017  0.11450216    -0.12500
C790        C  0.71208783  0.72067643  0.13481303     0.01200
C791        C  0.73030000  0.67716152  0.12029701    -0.11000
C792        C  0.69115392  0.64837983  0.09802529     0.03700
C793        C  0.63716339  0.66622326  0.08570458    -0.10400
H794        H  0.65057529  0.77340614  0.11902513     0.09300
H795        H  0.77328282  0.66485135  0.12845338     0.06800
H796        H  0.60299611  0.64506666  0.07270984     0.06600
C797        C  0.62468584  0.96301472  0.24503355     0.03700
C798        C  0.63545126  0.91764690  0.24616373    -0.12500
C799        C  0.69008263  0.89997489  0.23544009     0.01200
C800        C  0.73083105  0.92920851  0.21589301    -0.11000
C801        C  0.71251702  0.97207497  0.19990592     0.03700
C802        C  0.66146395  0.99030578  0.21936876    -0.10400
H803        H  0.60050503  0.89631900  0.25758318     0.09300
H804        H  0.77439319  0.91713009  0.20907089     0.06800
H805        H  0.65085423  0.52510014  0.21480727     0.06600
C806        C  0.63663939  0.78700252  0.25806358     0.03700
C807        C  0.66397094  0.76217830  0.22326510    -0.12500
C808        C  0.71304788  0.77990512  0.19964327     0.01200
C809        C  0.73058744  0.82431204  0.21102169    -0.11000
C810        C  0.69798189  0.85044965  0.24086016     0.03700
C811        C  0.66003615  0.82829258  0.26969073    -0.10400
H812        H  0.64822843  0.72911829  0.21538426     0.09300
H813        H  0.76920587  0.83936925  0.19719519     0.06800
H814        H  0.64280991  0.84633327  0.29843739     0.06600
C815        C  0.74987048  0.75001451  0.16667930    -0.01900
C816        C  0.75048488  0.00017959  0.16720794    -0.01900
O817        O  0.44103517  0.51942076  0.60567561    -0.73900
O818        O  0.55970704  0.55125642  0.35742111    -0.73900
O819        O  0.55928524  0.51920418  0.60618755    -0.74000
O820        O  0.44003732  0.55158832  0.35691574    -0.74000
O821        O  0.43875379  0.98439519  0.38825536    -0.73900
O822        O  0.55795381  0.95195083  0.63765487    -0.73900
O823        O  0.56039837  0.98399307  0.38859573    -0.74700
O824        O  0.44146939  0.95226740  0.63732294    -0.74000
Ni825      Ni  0.50003348  0.53803660  0.64763487     1.25400
Ni826      Ni  0.49962242  0.96580550  0.34749226     1.25400
C827        C  0.42200681  0.97954390  0.60761890     0.88300
C828        C  0.58269854  0.52276806  0.38445512     0.88200
C829        C  0.57790354  0.97924245  0.60818663     0.88300
C830        C  0.41673618  0.52324583  0.38390718     0.88400
O831        O  0.44136764  0.76822466  0.39498409    -0.73900
O832        O  0.56035693  0.80119936  0.64414725    -0.73900
O833        O  0.44070152  0.80152204  0.64435032    -0.74000
O834        O  0.55968883  0.76784867  0.39468859    -0.74000
O835        O  0.55827981  0.70099668  0.36208559    -0.73900
O836        O  0.43961907  0.73473386  0.61181627    -0.73900
O837        O  0.56103507  0.73432733  0.61180966    -0.73900
O838        O  0.44162322  0.70147938  0.36214967    -0.74000
Ni839      Ni  0.50053579  0.78734908  0.35354012     1.25400
Ni840      Ni  0.50011776  0.71554922  0.65241848     1.25400
C841        C  0.42210745  0.72845394  0.39224984     0.88300
C842        C  0.58319779  0.77311361  0.61648263     0.88200
C843        C  0.41771480  0.77357213  0.61664884     0.88300
C844        C  0.57842136  0.72793115  0.39192171     0.88400
C845        C  0.13802864  0.53683489  0.59314197     0.03700
C846        C  0.16025312  0.57872838  0.60397258    -0.12500
C847        C  0.19818159  0.60058614  0.57491051     0.01200
C848        C  0.23214871  0.57392119  0.54657299    -0.11000
C849        C  0.21363606  0.53006806  0.53422979     0.03700
C850        C  0.16495540  0.51218428  0.55804966    -0.10400
H851        H  0.14204619  0.59731005  0.63199434     0.09300
H852        H  0.27142742  0.58849626  0.53317588     0.06800
H853        H  0.14906654  0.97920452  0.55000509     0.06600
C854        C  0.12234468  0.71236009  0.57615371     0.03700
C855        C  0.13364483  0.66701183  0.57730549    -0.12500
C856        C  0.18870958  0.64966503  0.56718732     0.01200
C857        C  0.22895597  0.67863779  0.54670154    -0.11000
C858        C  0.21129041  0.72204846  0.53190762     0.03700
C859        C  0.15980322  0.73998966  0.55125824    -0.10400
H860        H  0.09903617  0.64544845  0.58888594     0.09300
H861        H  0.27248602  0.66652983  0.53994902     0.06800
H862        H  0.14953108  0.77492209  0.54734149     0.06600
C863        C  0.37545387  0.96323858  0.57736720     0.03700
C864        C  0.36499118  0.91782122  0.57843535    -0.12500
C865        C  0.31068131  0.89977313  0.56733516     0.01200
C866        C  0.27072652  0.92824902  0.54572770    -0.11000
C867        C  0.28805209  0.97192615  0.53126085     0.03700
C868        C  0.33849966  0.99039652  0.55162444    -0.10400
H869        H  0.39989840  0.89675130  0.59034159     0.09300
H870        H  0.22762700  0.91569155  0.53833387     0.06800
H871        H  0.34840714  0.52539522  0.54775976     0.06600
C872        C  0.36420156  0.78751137  0.59188154     0.03700
C873        C  0.34099076  0.82888585  0.60352942    -0.12500
C874        C  0.30202276  0.85054126  0.57516070     0.01200
C875        C  0.26744992  0.82350093  0.54768544    -0.11000
C876        C  0.28651182  0.77993294  0.53476612     0.03700
C877        C  0.33658521  0.76259354  0.55730254    -0.10400
H878        H  0.35891911  0.84726336  0.63177424     0.09300
H879        H  0.22747029  0.83761533  0.53500140     0.06800
H880        H  0.35290782  0.72983899  0.54880706     0.06600
C881        C  0.12208746  0.96105607  0.42350839     0.03700
C882        C  0.15861407  0.98886230  0.44925086    -0.12500
C883        C  0.21029317  0.97146681  0.46873017     0.01200
C884        C  0.22879633  0.92821307  0.45378451    -0.11000
C885        C  0.18949231  0.89894298  0.43249912     0.03700
C886        C  0.13452056  0.91592339  0.42141820    -0.10400
H887        H  0.14757809  0.52362801  0.45358191     0.09300
H888        H  0.27239663  0.91646051  0.46079034     0.06800
H889        H  0.10062407  0.89421817  0.40884442     0.06600
C890        C  0.13962184  0.78591877  0.40755051     0.03700
C891        C  0.16240019  0.82741216  0.39597623    -0.12500
C892        C  0.19978701  0.84983719  0.42501180     0.01200
C893        C  0.23364107  0.82356309  0.45366927    -0.11000
C894        C  0.21509693  0.77980981  0.46629002     0.03700
C895        C  0.16628753  0.76172393  0.44281596    -0.10400
H896        H  0.14479563  0.84541311  0.36743317     0.09300
H897        H  0.27290595  0.83831273  0.46693645     0.06800
H898        H  0.15008492  0.72896702  0.45125896     0.06600
C899        C  0.25048803  0.75096150  0.50067786    -0.01900
C900        C  0.36264701  0.53684461  0.40825568     0.03700
C901        C  0.33860932  0.57769863  0.39590027    -0.12500
C902        C  0.30013812  0.59983592  0.42440277     0.01200
C903        C  0.26587218  0.57315426  0.45239829    -0.11000
C904        C  0.28506066  0.52973107  0.46554764     0.03700
C905        C  0.33532753  0.51231369  0.44314909    -0.10400
H906        H  0.35592252  0.59554305  0.36715144     0.09300
H907        H  0.22598127  0.58741294  0.46517340     0.06800
H908        H  0.35208402  0.97983032  0.45203386     0.06600
C909        C  0.37523602  0.71209826  0.42209790     0.03700
C910        C  0.33930912  0.73933102  0.44873409    -0.12500
C911        C  0.28882215  0.72130912  0.46928699     0.01200
C912        C  0.27061080  0.67779698  0.45465782    -0.11000
C913        C  0.30956884  0.64908977  0.43210971     0.03700
C914        C  0.36372936  0.66683939  0.42006259    -0.10400
H915        H  0.34995013  0.77417381  0.45302479     0.09300
H916        H  0.22748268  0.66555672  0.46243068     0.06800
H917        H  0.39790003  0.64564039  0.40709378     0.06600
C918        C  0.24919248  0.00099151  0.49987422    -0.01900
O919        O  0.05636182  0.70074972  0.63609972    -0.73900
O920        O  0.94512496  0.73337502  0.39309592    -0.73900
O921        O  0.93966252  0.70198422  0.64124563    -0.74000
O922        O  0.06513925  0.73257508  0.38708849    -0.74000
O923        O  0.06224873  0.80012233  0.35654640    -0.73900
O924        O  0.93839894  0.76909326  0.60956852    -0.73900
O925        O  0.94400850  0.80057858  0.36169005    -0.73900
O926        O  0.05684777  0.76831104  0.60537520    -0.74000
Ni927      Ni  0.00149786  0.71472890  0.34873594     1.25400
Ni928      Ni  0.00019382  0.78712417  0.64926499     1.25400
C929        C  0.07558492  0.72829699  0.60655523     0.88300
C930        C  0.92492669  0.77293432  0.39135979     0.88200
C931        C  0.91910861  0.72935089  0.61200412     0.88300
C932        C  0.08630190  0.77172041  0.38297645     0.88400
O933        O  0.93541254  0.51736071  0.39027531    -0.73900
O934        O  0.06185109  0.55015416  0.64612071    -0.73900
O935        O  0.94284580  0.55122328  0.64105780    -0.74000
O936        O  0.05484436  0.51647956  0.39633374    -0.74000
O937        O  0.05606495  0.94993961  0.36310178    -0.73900
O938        O  0.94197587  0.98425188  0.60886958    -0.73900
O939        O  0.06308299  0.98371481  0.61284077    -0.73900
O940        O  0.93833574  0.95041046  0.35799540    -0.74000
Ni941      Ni  0.99886610  0.53634338  0.35263740     1.25400
Ni942      Ni  0.00014162  0.96467144  0.65126610     1.25400
C943        C  0.91435386  0.97830006  0.38506822     0.88300
C944        C  0.08502094  0.52246746  0.61823643     0.88200
C945        C  0.92017019  0.52317277  0.61339828     0.88300
C946        C  0.07471425  0.97688101  0.39362091     0.88400
C947        C  0.86630140  0.53689664  0.58924175     0.03700
C948        C  0.83890590  0.51241915  0.55438838    -0.12500
C949        C  0.78773044  0.52939366  0.53327949     0.01200
C950        C  0.76793288  0.57253528  0.54717487    -0.11000
C951        C  0.80186167  0.59923291  0.57537292     0.03700
C952        C  0.84134670  0.57709538  0.60288238    -0.10400
H953        H  0.85588049  0.98011510  0.54493679     0.09300
H954        H  0.72755201  0.58644352  0.53501330     0.06800
H955        H  0.85801248  0.59427668  0.63232546     0.06600
C956        C  0.87197082  0.71308117  0.58213464     0.03700
C957        C  0.86200764  0.66764584  0.58290090    -0.12500
C958        C  0.80905389  0.64890262  0.56939032     0.01200
C959        C  0.76978996  0.67708448  0.54654353    -0.11000
C960        C  0.78699280  0.72108063  0.53298203     0.03700
C961        C  0.83602321  0.73993438  0.55515209    -0.10400
H962        H  0.89684859  0.64696120  0.59546347     0.09300
H963        H  0.72746396  0.66405546  0.53756468     0.06800
H964        H  0.84595635  0.77493050  0.55132842     0.06600
C965        C  0.86128938  0.96382289  0.40922008     0.03700
C966        C  0.83803058  0.92264327  0.39697573    -0.12500
C967        C  0.80090647  0.89994277  0.42594117     0.01200
C968        C  0.76871512  0.92575854  0.45631430    -0.11000
C969        C  0.78676973  0.97000236  0.46818163     0.03700
C970        C  0.83519558  0.98794484  0.44465937    -0.10400
H971        H  0.85515505  0.90507311  0.36788195     0.09300
H972        H  0.73003908  0.91065187  0.47000751     0.06800
H973        H  0.85121795  0.52083002  0.45298045     0.06600
C974        C  0.87682890  0.78820186  0.42139065     0.03700
C975        C  0.86461447  0.83336676  0.41998059    -0.12500
C976        C  0.80975221  0.85047175  0.43118825     0.01200
C977        C  0.76961806  0.82100228  0.45113100    -0.11000
C978        C  0.78816024  0.77816121  0.46680571     0.03700
C979        C  0.84000832  0.76047716  0.44719590    -0.10400
H980        H  0.89884145  0.85516743  0.40821574     0.09300
H981        H  0.72609105  0.83292691  0.45827680     0.06800
H982        H  0.85122760  0.72581208  0.45180750     0.06600
C983        C  0.63683741  0.53613137  0.40899566     0.03700
C984        C  0.66153744  0.57662427  0.39620680    -0.12500
C985        C  0.69990073  0.59894111  0.42461693     0.01200
C986        C  0.73336430  0.57255721  0.45338436    -0.11000
C987        C  0.71403346  0.52918373  0.46669370     0.03700
C988        C  0.66377612  0.51176318  0.44424121    -0.10400
H989        H  0.64483131  0.59415420  0.36705213     0.09300
H990        H  0.77317712  0.58691003  0.46612829     0.06800
H991        H  0.64692203  0.97934764  0.45327447     0.06600
C992        C  0.62556884  0.71145111  0.42129419     0.03700
C993        C  0.66150042  0.73865030  0.44783546    -0.12500
C994        C  0.71208758  0.72067645  0.46814623     0.01200
C995        C  0.73029983  0.67716156  0.45363023    -0.11000
C996        C  0.69115369  0.64837988  0.43135855     0.03700
C997        C  0.63716328  0.66622332  0.41903778    -0.10400
H998        H  0.65057506  0.77340621  0.45235900     0.09300
H999        H  0.77328255  0.66485182  0.46178601     0.06800
H1000       H  0.60299594  0.64506666  0.40604312     0.06600
C1001       C  0.62468584  0.96301454  0.57836682     0.03700
C1002       C  0.63545132  0.91764676  0.57949703    -0.12500
C1003       C  0.69008278  0.89997474  0.56877331     0.01200
C1004       C  0.73083125  0.92920835  0.54922646    -0.11000
C1005       C  0.71251726  0.97207473  0.53323929     0.03700
C1006       C  0.66146404  0.99030560  0.55270205    -0.10400
H1007       H  0.60050473  0.89631869  0.59091646     0.09300
H1008       H  0.77439396  0.91712953  0.54240411     0.06800
H1009       H  0.65085415  0.52509961  0.54814090     0.06600
C1010       C  0.63663942  0.78700242  0.59139692     0.03700
C1011       C  0.66397089  0.76217833  0.55659836    -0.12500
C1012       C  0.71304775  0.77990513  0.53297652     0.01200
C1013       C  0.73058746  0.82431207  0.54435499    -0.11000
C1014       C  0.69798202  0.85044964  0.57419358     0.03700
C1015       C  0.66003610  0.82829256  0.60302407    -0.10400
H1016       H  0.64822830  0.72911830  0.54871746     0.09300
H1017       H  0.76920577  0.83936928  0.53052847     0.06800
H1018       H  0.64281002  0.84633310  0.63177087     0.06600
C1019       C  0.74987032  0.75001439  0.50001258    -0.01900
C1020       C  0.75048496  0.00017946  0.50054134    -0.01900
O1021       O  0.44103526  0.51942069  0.93900896    -0.73900
O1022       O  0.55970725  0.55125643  0.69075450    -0.73900
O1023       O  0.55928520  0.51920413  0.93952097    -0.74000
O1024       O  0.44003731  0.55158844  0.69024920    -0.74000
O1025       O  0.43875365  0.98439516  0.72158881    -0.73900
O1026       O  0.55795373  0.95195089  0.97098811    -0.73900
O1027       O  0.56039832  0.98399295  0.72192908    -0.74700
O1028       O  0.44146921  0.95226749  0.97065615    -0.74000
Ni1029     Ni  0.50003352  0.53803667  0.98096819     1.25400
Ni1030     Ni  0.49962238  0.96580553  0.68082564     1.25400
C1031       C  0.42200675  0.97954397  0.94095213     0.88300
C1032       C  0.58269863  0.52276803  0.71778850     0.88200
C1033       C  0.57790364  0.97924254  0.94151999     0.88300
C1034       C  0.41673636  0.52324585  0.71724060     0.88400
O1035       O  0.44136758  0.76822472  0.72831747    -0.73900
O1036       O  0.56035699  0.80119930  0.97748071    -0.73900
O1037       O  0.44070169  0.80152192  0.97768379    -0.74000
O1038       O  0.55968889  0.76784858  0.72802200    -0.74000
O1039       O  0.55827971  0.70099670  0.69541885    -0.73900
O1040       O  0.43961921  0.73473377  0.94514959    -0.73900
O1041       O  0.56103539  0.73432743  0.94514292    -0.73900
O1042       O  0.44162312  0.70147927  0.69548309    -0.74000
Ni1043     Ni  0.50053585  0.78734909  0.68687348     1.25400
Ni1044     Ni  0.50011792  0.71554927  0.98575180     1.25400
C1045       C  0.42210718  0.72845400  0.72558310     0.88300
C1046       C  0.58319796  0.77311368  0.94981604     0.88200
C1047       C  0.41771495  0.77357203  0.94998227     0.88300
C1048       C  0.57842134  0.72793110  0.72525497     0.88400
C1049       C  0.13802869  0.53683489  0.92647528     0.03700
C1050       C  0.16025321  0.57872834  0.93730586    -0.12500
C1051       C  0.19818152  0.60058619  0.90824376     0.01200
C1052       C  0.23214869  0.57392122  0.87990632    -0.11000
C1053       C  0.21363592  0.53006811  0.86756309     0.03700
C1054       C  0.16495542  0.51218429  0.89138301    -0.10400
H1055       H  0.14204604  0.59730983  0.96532753     0.09300
H1056       H  0.27142737  0.58849621  0.86650919     0.06800
H1057       H  0.14906701  0.97920521  0.88333864     0.06600
C1058       C  0.12234437  0.71236012  0.90948699     0.03700
C1059       C  0.13364444  0.66701182  0.91063883    -0.12500
C1060       C  0.18870918  0.64966503  0.90052064     0.01200
C1061       C  0.22895577  0.67863779  0.88003486    -0.11000
C1062       C  0.21129034  0.72204864  0.86524097     0.03700
C1063       C  0.15980308  0.73998978  0.88459162    -0.10400
H1064       H  0.09903518  0.64544805  0.92221941     0.09300
H1065       H  0.27248583  0.66652948  0.87328220     0.06800
H1066       H  0.14953048  0.77492282  0.88067479     0.06600
C1067       C  0.37545352  0.96323874  0.91070047     0.03700
C1068       C  0.36499090  0.91782132  0.91176864    -0.12500
C1069       C  0.31068098  0.89977327  0.90066834     0.01200
C1070       C  0.27072626  0.92824909  0.87906085    -0.11000
C1071       C  0.28805191  0.97192621  0.86459402     0.03700
C1072       C  0.33849949  0.99039663  0.88495759    -0.10400
H1073       H  0.39989750  0.89675176  0.92367478     0.09300
H1074       H  0.22762680  0.91569158  0.87166695     0.06800
H1075       H  0.34840724  0.52539514  0.88109353     0.06600
C1076       C  0.36420172  0.78751138  0.92521489     0.03700
C1077       C  0.34099077  0.82888587  0.93686270    -0.12500
C1078       C  0.30202270  0.85054130  0.90849390     0.01200
C1079       C  0.26744981  0.82350085  0.88101872    -0.11000
C1080       C  0.28651174  0.77993290  0.86809945     0.03700
C1081       C  0.33658525  0.76259358  0.89063590    -0.10400
H1082       H  0.35891902  0.84726349  0.96510767     0.09300
H1083       H  0.22746938  0.83761487  0.86833497     0.06800
H1084       H  0.35290829  0.72983912  0.88214019     0.06600
C1085       C  0.12208716  0.96105583  0.75684161     0.03700
C1086       C  0.15861398  0.98886230  0.78258404    -0.12500
C1087       C  0.21029284  0.97146698  0.80206345     0.01200
C1088       C  0.22879592  0.92821321  0.78711771    -0.11000
C1089       C  0.18949173  0.89894291  0.76583231     0.03700
C1090       C  0.13452020  0.91592316  0.75475134    -0.10400
H1091       H  0.14757879  0.52362857  0.78691488     0.09300
H1092       H  0.27239546  0.91646070  0.79412345     0.06800
H1093       H  0.10062300  0.89421741  0.74217740     0.06600
C1094       C  0.13962205  0.78591875  0.74088395     0.03700
C1095       C  0.16240033  0.82741214  0.72930969    -0.12500
C1096       C  0.19978735  0.84983721  0.75834522     0.01200
C1097       C  0.23364133  0.82356310  0.78700263    -0.11000
C1098       C  0.21509730  0.77980977  0.79962340     0.03700
C1099       C  0.16628762  0.76172398  0.77614941    -0.10400
H1100       H  0.14479633  0.84541279  0.70076650     0.09300
H1101       H  0.27290685  0.83831309  0.80027006     0.06800
H1102       H  0.15008449  0.72896704  0.78459254     0.06600
C1103       C  0.25048812  0.75096144  0.83401117    -0.01900
C1104       C  0.36264729  0.53684422  0.74158899     0.03700
C1105       C  0.33860956  0.57769840  0.72923360    -0.12500
C1106       C  0.30013839  0.59983573  0.75773600     0.01200
C1107       C  0.26587247  0.57315405  0.78573162    -0.11000
C1108       C  0.28506123  0.52973079  0.79888108     0.03700
C1109       C  0.33532793  0.51231336  0.77648248    -0.10400
H1110       H  0.35592182  0.59554253  0.70048429     0.09300
H1111       H  0.22598214  0.58741233  0.79850653     0.06800
H1112       H  0.35208446  0.97983122  0.78536748     0.06600
C1113       C  0.37523609  0.71209816  0.75543127     0.03700
C1114       C  0.33930907  0.73933095  0.78206735    -0.12500
C1115       C  0.28882216  0.72130906  0.80262023     0.01200
C1116       C  0.27061087  0.67779691  0.78799106    -0.11000
C1117       C  0.30956903  0.64908965  0.76544298     0.03700
C1118       C  0.36372947  0.66683930  0.75339590    -0.10400
H1119       H  0.34995006  0.77417375  0.78635798     0.09300
H1120       H  0.22748279  0.66555662  0.79576389     0.06800
H1121       H  0.39790047  0.64563998  0.74042709     0.06600
C1122       C  0.24919247  0.00099160  0.83320750    -0.01900
O1123       O  0.05636166  0.70074983  0.96943294    -0.73900
O1124       O  0.94512497  0.73337488  0.72642930    -0.73900
O1125       O  0.93966241  0.70198410  0.97457873    -0.74000
O1126       O  0.06513950  0.73257505  0.72042186    -0.74000
O1127       O  0.06224872  0.80012226  0.68987968    -0.73900
O1128       O  0.93839914  0.76909317  0.94290175    -0.73900
O1129       O  0.94400848  0.80057848  0.69502335    -0.73900
O1130       O  0.05684805  0.76831096  0.93870845    -0.74000
Ni1131     Ni  0.00149794  0.71472891  0.68206929     1.25400
Ni1132     Ni  0.00019395  0.78712420  0.98259825     1.25400
C1133       C  0.07558502  0.72829698  0.93988855     0.88300
C1134       C  0.92492692  0.77293424  0.72469326     0.88200
C1135       C  0.91910855  0.72935084  0.94533729     0.88300
C1136       C  0.08630209  0.77172040  0.71630973     0.88400
O1137       O  0.93541222  0.51736084  0.72360874    -0.73900
O1138       O  0.06185089  0.55015421  0.97945413    -0.73900
O1139       O  0.94284581  0.55122323  0.97439116    -0.74000
O1140       O  0.05484420  0.51647959  0.72966697    -0.74000
O1141       O  0.05606483  0.94993963  0.69643502    -0.73900
O1142       O  0.94197568  0.98425195  0.94220278    -0.73900
O1143       O  0.06308317  0.98371487  0.94617409    -0.73900
O1144       O  0.93833572  0.95041042  0.69132887    -0.74000
Ni1145     Ni  0.99886600  0.53634344  0.68597073     1.25400
Ni1146     Ni  0.00014158  0.96467145  0.98459934     1.25400
C1147       C  0.91435369  0.97830011  0.71840151     0.88300
C1148       C  0.08502079  0.52246757  0.95156978     0.88200
C1149       C  0.92017026  0.52317280  0.94673161     0.88300
C1150       C  0.07471432  0.97688102  0.72695408     0.88400
C1151       C  0.86630132  0.53689661  0.92257513     0.03700
C1152       C  0.83890586  0.51241913  0.88772170    -0.12500
C1153       C  0.78773055  0.52939361  0.86661296     0.01200
C1154       C  0.76793301  0.57253526  0.88050816    -0.11000
C1155       C  0.80186178  0.59923279  0.90870626     0.03700
C1156       C  0.84134667  0.57709540  0.93621569    -0.10400
H1157       H  0.85588056  0.98011509  0.87827027     0.09300
H1158       H  0.72755285  0.58644328  0.86834686     0.06800
H1159       H  0.85801177  0.59427643  0.96565896     0.06600
C1160       C  0.87197071  0.71308103  0.91546788     0.03700
C1161       C  0.86200755  0.66764567  0.91623414    -0.12500
C1162       C  0.80905373  0.64890241  0.90272366     0.01200
C1163       C  0.76978971  0.67708431  0.87987710    -0.11000
C1164       C  0.78699261  0.72108040  0.86631546     0.03700
C1165       C  0.83602310  0.73993427  0.88848535    -0.10400
H1166       H  0.89684835  0.64696096  0.92879722     0.09300
H1167       H  0.72746357  0.66405495  0.87089774     0.06800
H1168       H  0.84595588  0.77493029  0.88466180     0.06600
C1169       C  0.86128937  0.96382300  0.74255353     0.03700
C1170       C  0.83803056  0.92264329  0.73030908    -0.12500
C1171       C  0.80090652  0.89994272  0.75927447     0.01200
C1172       C  0.76871522  0.92575862  0.78964756    -0.11000
C1173       C  0.78676986  0.97000253  0.80151495     0.03700
C1174       C  0.83519556  0.98794490  0.77799275    -0.10400
H1175       H  0.85515510  0.90507317  0.70121527     0.09300
H1176       H  0.73003919  0.91065202  0.80334080     0.06800
H1177       H  0.85121793  0.52082937  0.78631429     0.06600
C1178       C  0.87682891  0.78820142  0.75472400     0.03700
C1179       C  0.86461441  0.83336646  0.75331385    -0.12500
C1180       C  0.80975233  0.85047156  0.76452158     0.01200
C1181       C  0.76961814  0.82100219  0.78446432    -0.11000
C1182       C  0.78816048  0.77816092  0.80013905     0.03700
C1183       C  0.84000838  0.76047671  0.78052921    -0.10400
H1184       H  0.89884110  0.85516697  0.74154900     0.09300
H1185       H  0.72609181  0.83292682  0.79161011     0.06800
H1186       H  0.85122763  0.72581119  0.78514084     0.06600
C1187       C  0.63683735  0.53613149  0.74232901     0.03700
C1188       C  0.66153750  0.57662427  0.72954003    -0.12500
C1189       C  0.69990091  0.59894117  0.75795011     0.01200
C1190       C  0.73336433  0.57255729  0.78671777    -0.11000
C1191       C  0.71403360  0.52918382  0.80002702     0.03700
C1192       C  0.66377611  0.51176323  0.77757454    -0.10400
H1193       H  0.64483091  0.59415437  0.70038548     0.09300
H1194       H  0.77317718  0.58691019  0.79946183     0.06800
H1195       H  0.64692215  0.97934772  0.78660807     0.06600
C1196       C  0.62556880  0.71145094  0.75462723     0.03700
C1197       C  0.66150034  0.73865008  0.78116861    -0.12500
C1198       C  0.71208750  0.72067630  0.80147959     0.01200
C1199       C  0.73029977  0.67716154  0.78696358    -0.11000
C1200       C  0.69115348  0.64837990  0.76469185     0.03700
C1201       C  0.63716315  0.66622334  0.75237086    -0.10400
H1202       H  0.65057522  0.77340556  0.78569162     0.09300
H1203       H  0.77328177  0.66485159  0.79511992     0.06800
H1204       H  0.60299581  0.64506673  0.73937613     0.06600
C1205       C  0.62468608  0.96301483  0.91170015     0.03700
C1206       C  0.63545143  0.91764694  0.91283025    -0.12500
C1207       C  0.69008298  0.89997488  0.90210664     0.01200
C1208       C  0.73083131  0.92920839  0.88255960    -0.11000
C1209       C  0.71251727  0.97207489  0.86657250     0.03700
C1210       C  0.66146404  0.99030591  0.88603523    -0.10400
H1211       H  0.60050542  0.89631928  0.92424957     0.09300
H1212       H  0.77439399  0.91712981  0.87573748     0.06800
H1213       H  0.65085398  0.52510035  0.88147429     0.06600
C1214       C  0.63663924  0.78700256  0.92473023     0.03700
C1215       C  0.66397077  0.76217841  0.88993181    -0.12500
C1216       C  0.71304763  0.77990520  0.86630984     0.01200
C1217       C  0.73058738  0.82431216  0.87768821    -0.11000
C1218       C  0.69798183  0.85044968  0.90752674     0.03700
C1219       C  0.66003596  0.82829260  0.93635727    -0.10400
H1220       H  0.64822815  0.72911837  0.88205093     0.09300
H1221       H  0.76920576  0.83936936  0.86386176     0.06800
H1222       H  0.64280972  0.84633323  0.96510400     0.06600
C1223       C  0.74987032  0.75001434  0.83334600    -0.01900
C1224       C  0.75048498  0.00017961  0.83387459    -0.01900
loop_ 
_geom_bond_atom_site_label_1 
_geom_bond_atom_site_label_2 
_geom_bond_distance 
_geom_bond_site_symmetry_2 
_ccdc_geom_bond_type 
O1           Ni9   1.920       .  S
O1          C623   1.277   1_545  A
O2         Ni417   1.913   1_554  S
O2           C12   1.287       .  A
O3           Ni9   1.915       .  S
O3          C625   1.276   1_545  A
O4         Ni417   1.910   1_554  S
O4           C14   1.286       .  A
O5          Ni10   1.927       .  S
O5          C626   1.279       .  A
O6         Ni214   1.896       .  S
O6           C13   1.284       .  A
O7          Ni10   1.929       .  S
O7          C624   1.279       .  A
O8         Ni214   1.898       .  S
O8           C11   1.284       .  A
Ni9         O206   1.913       .  S
Ni9         O208   1.910       .  S
Ni9        Ni826   2.386   1_545  S
Ni10        O414   1.896   1_554  S
Ni10        O416   1.898   1_554  S
Ni10      Ni1029   2.386   1_554  S
C11         O613   1.277       .  A
C11          C47   1.477       .  S
C12         O619   1.279   1_545  A
C12         C167   1.493       .  S
C13         O615   1.276       .  A
C13         C185   1.472       .  S
C14         O617   1.279   1_545  A
C14          C84   1.491       .  S
O15         Ni23   1.918       .  S
O15          C25   1.277       .  A
O16        Ni227   1.913       .  S
O16          C26   1.286       .  A
O17        Ni227   1.911       .  S
O17          C27   1.286       .  A
O18         Ni23   1.916       .  S
O18          C28   1.277       .  A
O19        Ni432   1.896   1_554  S
O19          C28   1.283       .  A
O20         Ni24   1.925       .  S
O20          C27   1.279       .  A
O21         Ni24   1.928       .  S
O21          C26   1.279       .  A
O22        Ni432   1.899   1_554  S
O22          C25   1.284       .  A
Ni23        O424   1.913   1_554  S
Ni23        O425   1.911   1_554  S
Ni23       Ni432   2.386   1_554  S
Ni24        O223   1.896       .  S
Ni24        O226   1.899       .  S
Ni24       Ni227   2.386       .  S
C25          C93   1.476       .  S
C26         C194   1.493       .  S
C27          C56   1.490       .  S
C28         C176   1.474       .  S
C29         C128   1.489       .  S
C29          C30   1.395       .  A
C29          C34   1.417       .  A
C30          C31   1.390       .  A
C30          H35   1.083       .  S
C31          C40   1.509       .  S
C31          C32   1.396       .  A
C32          C33   1.432       .  A
C32          H36   1.078       .  S
C33          C34   1.426       .  A
C33         C714   1.568       .  S
C34         H649   1.082   1_545  S
H37         C646   1.082       .  S
C38         C113   1.479       .  S
C38          C39   1.388       .  A
C38          C43   1.405       .  A
C39          C40   1.398       .  A
C39          H44   1.081       .  S
C40          C41   1.407       .  A
C41          C42   1.436       .  A
C41          H45   1.081       .  S
C42          C43   1.418       .  A
C42          C83   1.556       .  S
C43          H46   1.083       .  S
C47          C48   1.387       .  A
C47          C52   1.403       .  A
C48          C49   1.397       .  A
C48          H53   1.080       .  S
C49          C58   1.512       .  S
C49          C50   1.409       .  A
C50          C51   1.438       .  A
C50          H54   1.080       .  S
C51          C52   1.417       .  A
C51         C102   1.557       .  S
C52         H667   1.083       .  S
H55         C664   1.083   1_545  S
C56          C57   1.395       .  A
C56          C61   1.417       .  A
C57          C58   1.390       .  A
C57          H62   1.083       .  S
C58          C59   1.396       .  A
C59          C60   1.432       .  A
C59          H63   1.078       .  S
C60          C61   1.427       .  A
C60          C83   1.568       .  S
C61          H64   1.082       .  S
C65         C130   1.481       .  S
C65          C66   1.407       .  A
C65          C70   1.388       .  A
C66          C67   1.418       .  A
C66         H683   1.083       .  S
C67          C68   1.437       .  A
C67         C102   1.559       .  S
C68          C69   1.408       .  A
C68          H72   1.080       .  S
C69          C76   1.511       .  S
C69          C70   1.399       .  A
C70          H73   1.081       .  S
H71         C678   1.083   1_545  S
C74         C116   1.485       .  S
C74          C75   1.396       .  A
C74          C79   1.414       .  A
C75          C76   1.388       .  A
C75          H80   1.083       .  S
C76          C77   1.397       .  A
C77          C78   1.433       .  A
C77          H81   1.078       .  S
C78          C79   1.425       .  A
C78          C83   1.566       .  S
C79          H82   1.082       .  S
C83          C95   1.558       .  S
C84          C85   1.396       .  A
C84          C89   1.417       .  A
C85          C86   1.389       .  A
C85          H90   1.083       .  S
C86          C97   1.513       .  S
C86          C87   1.397       .  A
C87          C88   1.432       .  A
C87          H91   1.078       .  S
C88          C89   1.428       .  A
C88         C714   1.569       .  S
C89         H704   1.082   1_545  S
H92         C701   1.082       .  S
C93          C94   1.403       .  A
C93          C98   1.387       .  A
C94          C95   1.416       .  A
C94          H99   1.083       .  S
C95          C96   1.439       .  A
C96          C97   1.409       .  A
C96         H100   1.080       .  S
C97          C98   1.398       .  A
C98         H101   1.080       .  S
C102        C645   1.568       .  S
C102        C700   1.569       .  S
O103       Ni315   1.900       .  S
O103        C113   1.284       .  A
O104       Ni111   1.925   1_655  S
O104        C114   1.277       .  A
O105       Ni315   1.902   1_655  S
O105        C115   1.286       .  A
O106       Ni111   1.925       .  S
O106        C116   1.279       .  A
O107       Ni520   1.904   1_554  S
O107        C116   1.284       .  A
O108       Ni112   1.919   1_655  S
O108        C115   1.276       .  A
O109       Ni520   1.912   1_654  S
O109        C114   1.288       .  A
O110       Ni112   1.922       .  S
O110        C113   1.278       .  A
Ni111       O511   1.900   1_554  S
Ni111       O513   1.902   1_454  S
Ni111      Ni520   2.386   1_554  S
Ni112       O311   1.904       .  S
Ni112       O313   1.912   1_455  S
Ni112      Ni315   2.386       .  S
C114        C158   1.488       .  S
C115        C140   1.480       .  S
O117       Ni125   1.920       .  S
O117        C739   1.279   1_545  A
O118       Ni329   1.911   1_455  S
O118        C128   1.286       .  A
O119       Ni329   1.904       .  S
O119        C129   1.285       .  A
O120       Ni125   1.919   1_455  S
O120        C742   1.277   1_545  A
O121       Ni534   1.906   1_554  S
O121        C130   1.286       .  A
O122       Ni126   1.925   1_655  S
O122        C741   1.279       .  A
O123       Ni126   1.926       .  S
O123        C740   1.279       .  A
O124       Ni534   1.898   1_654  S
O124        C127   1.283       .  A
Ni125       O526   1.911   1_654  S
Ni125       O527   1.904   1_554  S
Ni125     Ni1146   2.385   1_644  S
Ni126       O325   1.906       .  S
Ni126       O328   1.898   1_455  S
Ni126      Ni941   2.385   1_455  S
C127        O729   1.279       .  A
C127        C149   1.477       .  S
C128        O735   1.279   1_545  A
C129        O734   1.279   1_545  A
C129        C131   1.486       .  S
C130        O732   1.277       .  A
C131        C132   1.414       .  A
C131        C136   1.396       .  A
C132        C133   1.425       .  A
C132        H749   1.082   1_545  S
C133        C134   1.433       .  A
C133        C816   1.561       .  S
C134        C135   1.395       .  A
C134        H138   1.078       .  S
C135        C142   1.513       .  S
C135        C136   1.389       .  A
C136        H139   1.083       .  S
H137        C744   1.082       .  S
C140        C141   1.385       .  A
C140        C145   1.405       .  A
C141        C142   1.397       .  A
C141        H146   1.079       .  S
C142        C143   1.410       .  A
C143        C144   1.438       .  A
C143        H147   1.080       .  S
C144        C145   1.420       .  A
C144        C203   1.562       .  S
C145        H148   1.083       .  S
C149        C150   1.395       .  A
C149        C154   1.408       .  A
C150        C151   1.389       .  A
C150        H155   1.083       .  S
C151        C160   1.509       .  S
C151        C152   1.397       .  A
C152        C153   1.436       .  A
C152        H156   1.076       .  S
C153        C154   1.418       .  A
C153        C204   1.559       .  S
C154        H769   1.083       .  S
H157        C766   1.083   1_545  S
C158        C159   1.387       .  A
C158        C163   1.412       .  A
C159        C160   1.398       .  A
C159        H164   1.081       .  S
C160        C161   1.408       .  A
C161        C162   1.434       .  A
C161        H165   1.081       .  S
C162        C163   1.425       .  A
C162        C203   1.568       .  S
C163        H166   1.082       .  S
C167        C168   1.396       .  A
C167        C172   1.419       .  A
C168        C169   1.389       .  A
C168        H173   1.083       .  S
C169        C180   1.512       .  S
C169        C170   1.395       .  A
C170        C171   1.433       .  A
C170        H174   1.078       .  S
C171        C172   1.429       .  A
C171        C816   1.571       .  S
C172        H787   1.082   1_545  S
H175        C784   1.083       .  S
C176        C177   1.401       .  A
C176        C181   1.387       .  A
C177        C178   1.414       .  A
C177        H182   1.082       .  S
C178        C179   1.438       .  A
C178        C203   1.555       .  S
C179        C180   1.410       .  A
C179        H183   1.080       .  S
C180        C181   1.398       .  A
C181        H184   1.080       .  S
C185        C186   1.386       .  A
C185        C190   1.402       .  A
C186        C187   1.397       .  A
C186        H191   1.081       .  S
C187        C198   1.509       .  S
C187        C188   1.408       .  A
C188        C189   1.437       .  A
C188        H192   1.081       .  S
C189        C190   1.414       .  A
C189        C204   1.553       .  S
C190        H805   1.083       .  S
H193        C802   1.083   1_545  S
C194        C195   1.417       .  A
C194        C199   1.395       .  A
C195        C196   1.429       .  A
C195        H200   1.082       .  S
C196        C197   1.434       .  A
C196        C203   1.571       .  S
C197        C198   1.398       .  A
C197        H201   1.076       .  S
C198        C199   1.390       .  A
C199        H202   1.083       .  S
C204        C745   1.561       .  S
C204        C783   1.571       .  S
O205       Ni213   1.920       .  S
O205        C827   1.277   1_545  A
O206        C216   1.287       .  A
O207       Ni213   1.915       .  S
O207        C829   1.276   1_545  A
O208        C218   1.286       .  A
O209       Ni214   1.927       .  S
O209        C830   1.279       .  A
O210       Ni418   1.896       .  S
O210        C217   1.284       .  A
O211       Ni214   1.929       .  S
O211        C828   1.279       .  A
O212       Ni418   1.898       .  S
O212        C215   1.284       .  A
Ni213       O410   1.913       .  S
Ni213       O412   1.910       .  S
Ni213     Ni1030   2.386   1_545  S
Ni214      Ni621   2.386       .  S
C215        O817   1.277       .  A
C215        C251   1.477       .  S
C216        O823   1.279   1_545  A
C216        C371   1.493       .  S
C217        O819   1.276       .  A
C217        C389   1.472       .  S
C218        O821   1.279   1_545  A
C218        C288   1.491       .  S
O219       Ni227   1.918       .  S
O219        C229   1.277       .  A
O220       Ni431   1.913       .  S
O220        C230   1.286       .  A
O221       Ni431   1.911       .  S
O221        C231   1.286       .  A
O222       Ni227   1.916       .  S
O222        C232   1.277       .  A
O223        C232   1.283       .  A
O224       Ni228   1.925       .  S
O224        C231   1.279       .  A
O225       Ni228   1.928       .  S
O225        C230   1.279       .  A
O226        C229   1.284       .  A
Ni228       O427   1.896       .  S
Ni228       O430   1.899       .  S
Ni228      Ni431   2.386       .  S
C229        C297   1.476       .  S
C230        C398   1.493       .  S
C231        C260   1.490       .  S
C232        C380   1.474       .  S
C233        C332   1.489       .  S
C233        C234   1.395       .  A
C233        C238   1.417       .  A
C234        C235   1.390       .  A
C234        H239   1.083       .  S
C235        C244   1.509       .  S
C235        C236   1.396       .  A
C236        C237   1.432       .  A
C236        H240   1.078       .  S
C237        C238   1.426       .  A
C237        C918   1.568       .  S
C238        H853   1.082   1_545  S
H241        C850   1.082       .  S
C242        C317   1.479       .  S
C242        C243   1.388       .  A
C242        C247   1.405       .  A
C243        C244   1.398       .  A
C243        H248   1.081       .  S
C244        C245   1.407       .  A
C245        C246   1.436       .  A
C245        H249   1.081       .  S
C246        C247   1.418       .  A
C246        C287   1.556       .  S
C247        H250   1.083       .  S
C251        C252   1.387       .  A
C251        C256   1.403       .  A
C252        C253   1.397       .  A
C252        H257   1.080       .  S
C253        C262   1.512       .  S
C253        C254   1.409       .  A
C254        C255   1.438       .  A
C254        H258   1.080       .  S
C255        C256   1.417       .  A
C255        C306   1.557       .  S
C256        H871   1.083       .  S
H259        C868   1.083   1_545  S
C260        C261   1.395       .  A
C260        C265   1.417       .  A
C261        C262   1.390       .  A
C261        H266   1.083       .  S
C262        C263   1.396       .  A
C263        C264   1.432       .  A
C263        H267   1.078       .  S
C264        C265   1.427       .  A
C264        C287   1.568       .  S
C265        H268   1.082       .  S
C269        C334   1.481       .  S
C269        C270   1.407       .  A
C269        C274   1.388       .  A
C270        C271   1.418       .  A
C270        H887   1.083       .  S
C271        C272   1.437       .  A
C271        C306   1.559       .  S
C272        C273   1.408       .  A
C272        H276   1.080       .  S
C273        C280   1.511       .  S
C273        C274   1.399       .  A
C274        H277   1.081       .  S
H275        C882   1.083   1_545  S
C278        C320   1.485       .  S
C278        C279   1.396       .  A
C278        C283   1.414       .  A
C279        C280   1.388       .  A
C279        H284   1.083       .  S
C280        C281   1.397       .  A
C281        C282   1.433       .  A
C281        H285   1.078       .  S
C282        C283   1.425       .  A
C282        C287   1.566       .  S
C283        H286   1.082       .  S
C287        C299   1.558       .  S
C288        C289   1.396       .  A
C288        C293   1.417       .  A
C289        C290   1.389       .  A
C289        H294   1.083       .  S
C290        C301   1.513       .  S
C290        C291   1.397       .  A
C291        C292   1.432       .  A
C291        H295   1.078       .  S
C292        C293   1.428       .  A
C292        C918   1.569       .  S
C293        H908   1.082   1_545  S
H296        C905   1.082       .  S
C297        C298   1.403       .  A
C297        C302   1.387       .  A
C298        C299   1.416       .  A
C298        H303   1.083       .  S
C299        C300   1.439       .  A
C300        C301   1.409       .  A
C300        H304   1.080       .  S
C301        C302   1.398       .  A
C302        H305   1.080       .  S
C306        C849   1.568       .  S
C306        C904   1.569       .  S
O307       Ni519   1.900       .  S
O307        C317   1.284       .  A
O308       Ni315   1.925   1_655  S
O308        C318   1.277       .  A
O309       Ni519   1.902   1_655  S
O309        C319   1.286       .  A
O310       Ni315   1.925       .  S
O310        C320   1.279       .  A
O311        C320   1.284       .  A
O312       Ni316   1.919   1_655  S
O312        C319   1.276       .  A
O313        C318   1.288       .  A
O314       Ni316   1.922       .  S
O314        C317   1.278       .  A
Ni316       O515   1.904       .  S
Ni316       O517   1.912   1_455  S
Ni316      Ni519   2.386       .  S
C318        C362   1.488       .  S
C319        C344   1.480       .  S
O321       Ni329   1.920       .  S
O321        C943   1.279   1_545  A
O322       Ni533   1.911   1_455  S
O322        C332   1.286       .  A
O323       Ni533   1.904       .  S
O323        C333   1.285       .  A
O324       Ni329   1.919   1_455  S
O324        C946   1.277   1_545  A
O325        C334   1.286       .  A
O326       Ni330   1.925   1_655  S
O326        C945   1.279       .  A
O327       Ni330   1.926       .  S
O327        C944   1.279       .  A
O328        C331   1.283       .  A
Ni329      Ni738   2.385   1_645  S
Ni330       O529   1.906       .  S
Ni330       O532   1.898   1_455  S
Ni330     Ni1145   2.385   1_455  S
C331        O933   1.279       .  A
C331        C353   1.477       .  S
C332        O939   1.279   1_545  A
C333        O938   1.279   1_545  A
C333        C335   1.486       .  S
C334        O936   1.277       .  A
C335        C336   1.414       .  A
C335        C340   1.396       .  A
C336        C337   1.425       .  A
C336        H953   1.082   1_545  S
C337        C338   1.433       .  A
C337       C1020   1.561       .  S
C338        C339   1.395       .  A
C338        H342   1.078       .  S
C339        C346   1.513       .  S
C339        C340   1.389       .  A
C340        H343   1.083       .  S
H341        C948   1.082       .  S
C344        C345   1.385       .  A
C344        C349   1.405       .  A
C345        C346   1.397       .  A
C345        H350   1.079       .  S
C346        C347   1.410       .  A
C347        C348   1.438       .  A
C347        H351   1.080       .  S
C348        C349   1.420       .  A
C348        C407   1.562       .  S
C349        H352   1.083       .  S
C353        C354   1.395       .  A
C353        C358   1.408       .  A
C354        C355   1.389       .  A
C354        H359   1.083       .  S
C355        C364   1.509       .  S
C355        C356   1.397       .  A
C356        C357   1.436       .  A
C356        H360   1.076       .  S
C357        C358   1.418       .  A
C357        C408   1.559       .  S
C358        H973   1.083       .  S
H361        C970   1.083   1_545  S
C362        C363   1.387       .  A
C362        C367   1.412       .  A
C363        C364   1.398       .  A
C363        H368   1.081       .  S
C364        C365   1.408       .  A
C365        C366   1.434       .  A
C365        H369   1.081       .  S
C366        C367   1.425       .  A
C366        C407   1.568       .  S
C367        H370   1.082       .  S
C371        C372   1.396       .  A
C371        C376   1.419       .  A
C372        C373   1.389       .  A
C372        H377   1.083       .  S
C373        C384   1.512       .  S
C373        C374   1.395       .  A
C374        C375   1.433       .  A
C374        H378   1.078       .  S
C375        C376   1.429       .  A
C375       C1020   1.571       .  S
C376        H991   1.082   1_545  S
H379        C988   1.082       .  S
C380        C381   1.401       .  A
C380        C385   1.387       .  A
C381        C382   1.414       .  A
C381        H386   1.082       .  S
C382        C383   1.438       .  A
C382        C407   1.555       .  S
C383        C384   1.410       .  A
C383        H387   1.080       .  S
C384        C385   1.398       .  A
C385        H388   1.080       .  S
C389        C390   1.386       .  A
C389        C394   1.402       .  A
C390        C391   1.397       .  A
C390        H395   1.081       .  S
C391        C402   1.509       .  S
C391        C392   1.408       .  A
C392        C393   1.437       .  A
C392        H396   1.081       .  S
C393        C394   1.414       .  A
C393        C408   1.553       .  S
C394       H1009   1.083       .  S
H397       C1006   1.083   1_545  S
C398        C399   1.417       .  A
C398        C403   1.395       .  A
C399        C400   1.429       .  A
C399        H404   1.082       .  S
C400        C401   1.434       .  A
C400        C407   1.571       .  S
C401        C402   1.398       .  A
C401        H405   1.076       .  S
C402        C403   1.390       .  A
C403        H406   1.083       .  S
C408        C949   1.561       .  S
C408        C987   1.571       .  S
O409       Ni417   1.920       .  S
O409       C1031   1.277   1_545  A
O410        C420   1.287       .  A
O411       Ni417   1.915       .  S
O411       C1033   1.276   1_545  A
O412        C422   1.286       .  A
O413       Ni418   1.927       .  S
O413       C1034   1.279       .  A
O414        C421   1.284       .  A
O415       Ni418   1.929       .  S
O415       C1032   1.279       .  A
O416        C419   1.284       .  A
Ni417      Ni622   2.386   1_546  S
Ni418      Ni825   2.386       .  S
C419       O1021   1.277       .  A
C419        C455   1.477       .  S
C420       O1027   1.279   1_545  A
C420        C575   1.493       .  S
C421       O1023   1.276       .  A
C421        C593   1.472       .  S
C422       O1025   1.279   1_545  A
C422        C492   1.491       .  S
O423       Ni431   1.918       .  S
O423        C433   1.277       .  A
O424        C434   1.286       .  A
O425        C435   1.286       .  A
O426       Ni431   1.916       .  S
O426        C436   1.277       .  A
O427        C436   1.283       .  A
O428       Ni432   1.925       .  S
O428        C435   1.279       .  A
O429       Ni432   1.928       .  S
O429        C434   1.279       .  A
O430        C433   1.284       .  A
C433        C501   1.476       .  S
C434        C602   1.493       .  S
C435        C464   1.490       .  S
C436        C584   1.474       .  S
C437        C536   1.489       .  S
C437        C438   1.395       .  A
C437        C442   1.417       .  A
C438        C439   1.390       .  A
C438        H443   1.083       .  S
C439        C448   1.509       .  S
C439        C440   1.396       .  A
C440        C441   1.432       .  A
C440        H444   1.078       .  S
C441        C442   1.426       .  A
C441       C1122   1.568       .  S
C442       H1057   1.082   1_545  S
H445       C1054   1.082       .  S
C446        C521   1.479       .  S
C446        C447   1.388       .  A
C446        C451   1.405       .  A
C447        C448   1.398       .  A
C447        H452   1.081       .  S
C448        C449   1.407       .  A
C449        C450   1.436       .  A
C449        H453   1.081       .  S
C450        C451   1.418       .  A
C450        C491   1.556       .  S
C451        H454   1.083       .  S
C455        C456   1.387       .  A
C455        C460   1.403       .  A
C456        C457   1.397       .  A
C456        H461   1.080       .  S
C457        C466   1.512       .  S
C457        C458   1.409       .  A
C458        C459   1.438       .  A
C458        H462   1.080       .  S
C459        C460   1.417       .  A
C459        C510   1.557       .  S
C460       H1075   1.083       .  S
H463       C1072   1.083   1_545  S
C464        C465   1.395       .  A
C464        C469   1.417       .  A
C465        C466   1.390       .  A
C465        H470   1.083       .  S
C466        C467   1.396       .  A
C467        C468   1.432       .  A
C467        H471   1.078       .  S
C468        C469   1.427       .  A
C468        C491   1.568       .  S
C469        H472   1.082       .  S
C473        C538   1.481       .  S
C473        C474   1.407       .  A
C473        C478   1.388       .  A
C474        C475   1.418       .  A
C474       H1091   1.083       .  S
C475        C476   1.437       .  A
C475        C510   1.559       .  S
C476        C477   1.408       .  A
C476        H480   1.080       .  S
C477        C484   1.511       .  S
C477        C478   1.399       .  A
C478        H481   1.081       .  S
H479       C1086   1.083   1_545  S
C482        C524   1.485       .  S
C482        C483   1.396       .  A
C482        C487   1.414       .  A
C483        C484   1.388       .  A
C483        H488   1.083       .  S
C484        C485   1.397       .  A
C485        C486   1.433       .  A
C485        H489   1.077       .  S
C486        C487   1.425       .  A
C486        C491   1.566       .  S
C487        H490   1.082       .  S
C491        C503   1.558       .  S
C492        C493   1.396       .  A
C492        C497   1.417       .  A
C493        C494   1.389       .  A
C493        H498   1.083       .  S
C494        C505   1.513       .  S
C494        C495   1.397       .  A
C495        C496   1.432       .  A
C495        H499   1.078       .  S
C496        C497   1.428       .  A
C496       C1122   1.569       .  S
C497       H1112   1.082   1_545  S
H500       C1109   1.082       .  S
C501        C502   1.403       .  A
C501        C506   1.387       .  A
C502        C503   1.416       .  A
C502        H507   1.083       .  S
C503        C504   1.439       .  A
C504        C505   1.409       .  A
C504        H508   1.080       .  S
C505        C506   1.398       .  A
C506        H509   1.080       .  S
C510       C1053   1.568       .  S
C510       C1108   1.569       .  S
O511        C521   1.284       .  A
O512       Ni519   1.925   1_655  S
O512        C522   1.277       .  A
O513        C523   1.286       .  A
O514       Ni519   1.925       .  S
O514        C524   1.279       .  A
O515        C524   1.284       .  A
O516       Ni520   1.919   1_655  S
O516        C523   1.276       .  A
O517        C522   1.288       .  A
O518       Ni520   1.922       .  S
O518        C521   1.278       .  A
C522        C566   1.488       .  S
C523        C548   1.480       .  S
O525       Ni533   1.920       .  S
O525       C1147   1.279   1_545  A
O526        C536   1.286       .  A
O527        C537   1.285       .  A
O528       Ni533   1.919   1_455  S
O528       C1150   1.277   1_545  A
O529        C538   1.286       .  A
O530       Ni534   1.925   1_655  S
O530       C1149   1.279       .  A
O531       Ni534   1.926       .  S
O531       C1148   1.279       .  A
O532        C535   1.283       .  A
Ni533      Ni942   2.385   1_645  S
Ni534      Ni737   2.385   1_456  S
C535       O1137   1.279       .  A
C535        C557   1.477       .  S
C536       O1143   1.279   1_545  A
C537       O1142   1.279   1_545  A
C537        C539   1.486       .  S
C538       O1140   1.277       .  A
C539        C540   1.414       .  A
C539        C544   1.396       .  A
C540        C541   1.425       .  A
C540       H1157   1.082   1_545  S
C541        C542   1.433       .  A
C541       C1224   1.561       .  S
C542        C543   1.395       .  A
C542        H546   1.078       .  S
C543        C550   1.513       .  S
C543        C544   1.389       .  A
C544        H547   1.083       .  S
H545       C1152   1.082       .  S
C548        C549   1.385       .  A
C548        C553   1.405       .  A
C549        C550   1.397       .  A
C549        H554   1.079       .  S
C550        C551   1.410       .  A
C551        C552   1.438       .  A
C551        H555   1.080       .  S
C552        C553   1.420       .  A
C552        C611   1.562       .  S
C553        H556   1.083       .  S
C557        C558   1.395       .  A
C557        C562   1.408       .  A
C558        C559   1.389       .  A
C558        H563   1.083       .  S
C559        C568   1.509       .  S
C559        C560   1.397       .  A
C560        C561   1.436       .  A
C560        H564   1.076       .  S
C561        C562   1.418       .  A
C561        C612   1.559       .  S
C562       H1177   1.083       .  S
H565       C1174   1.083   1_545  S
C566        C567   1.387       .  A
C566        C571   1.412       .  A
C567        C568   1.398       .  A
C567        H572   1.081       .  S
C568        C569   1.408       .  A
C569        C570   1.434       .  A
C569        H573   1.081       .  S
C570        C571   1.425       .  A
C570        C611   1.568       .  S
C571        H574   1.082       .  S
C575        C576   1.396       .  A
C575        C580   1.419       .  A
C576        C577   1.389       .  A
C576        H581   1.083       .  S
C577        C588   1.512       .  S
C577        C578   1.395       .  A
C578        C579   1.433       .  A
C578        H582   1.078       .  S
C579        C580   1.429       .  A
C579       C1224   1.571       .  S
C580       H1195   1.082   1_545  S
H583       C1192   1.082       .  S
C584        C585   1.401       .  A
C584        C589   1.387       .  A
C585        C586   1.414       .  A
C585        H590   1.082       .  S
C586        C587   1.438       .  A
C586        C611   1.555       .  S
C587        C588   1.410       .  A
C587        H591   1.080       .  S
C588        C589   1.398       .  A
C589        H592   1.080       .  S
C593        C594   1.386       .  A
C593        C598   1.402       .  A
C594        C595   1.397       .  A
C594        H599   1.081       .  S
C595        C606   1.509       .  S
C595        C596   1.408       .  A
C596        C597   1.437       .  A
C596        H600   1.081       .  S
C597        C598   1.414       .  A
C597        C612   1.553       .  S
C598       H1213   1.083       .  S
H601       C1210   1.083   1_545  S
C602        C603   1.417       .  A
C602        C607   1.395       .  A
C603        C604   1.429       .  A
C603        H608   1.082       .  S
C604        C605   1.434       .  A
C604        C611   1.571       .  S
C605        C606   1.398       .  A
C605        H609   1.076       .  S
C606        C607   1.390       .  A
C607        H610   1.083       .  S
C612       C1153   1.561       .  S
C612       C1191   1.571       .  S
O613       Ni621   1.920       .  S
O614      Ni1029   1.913   1_554  S
O614        C624   1.287       .  A
O615       Ni621   1.915       .  S
O616      Ni1029   1.910   1_554  S
O616        C626   1.286       .  A
O617       Ni622   1.927       .  S
O618       Ni826   1.896       .  S
O618        C625   1.284       .  A
O619       Ni622   1.929       .  S
O620       Ni826   1.898       .  S
O620        C623   1.284       .  A
Ni621       O818   1.913       .  S
Ni621       O820   1.910       .  S
Ni622      O1026   1.896   1_554  S
Ni622      O1028   1.898   1_554  S
C623        C659   1.477       .  S
C624        C779   1.493       .  S
C625        C797   1.472       .  S
C626        C696   1.491       .  S
O627       Ni635   1.918       .  S
O627        C637   1.277       .  A
O628       Ni839   1.913       .  S
O628        C638   1.286       .  A
O629       Ni839   1.911       .  S
O629        C639   1.286       .  A
O630       Ni635   1.916       .  S
O630        C640   1.277       .  A
O631      Ni1044   1.896   1_554  S
O631        C640   1.283       .  A
O632       Ni636   1.925       .  S
O632        C639   1.279       .  A
O633       Ni636   1.928       .  S
O633        C638   1.279       .  A
O634      Ni1044   1.899   1_554  S
O634        C637   1.284       .  A
Ni635      O1036   1.913   1_554  S
Ni635      O1037   1.911   1_554  S
Ni635     Ni1044   2.386   1_554  S
Ni636       O835   1.896       .  S
Ni636       O838   1.899       .  S
Ni636      Ni839   2.386       .  S
C637        C705   1.476       .  S
C638        C806   1.493       .  S
C639        C668   1.490       .  S
C640        C788   1.474       .  S
C641        C740   1.489       .  S
C641        C642   1.395       .  A
C641        C646   1.417       .  A
C642        C643   1.390       .  A
C642        H647   1.083       .  S
C643        C652   1.509       .  S
C643        C644   1.396       .  A
C644        C645   1.432       .  A
C644        H648   1.078       .  S
C645        C646   1.426       .  A
C650        C725   1.479       .  S
C650        C651   1.388       .  A
C650        C655   1.405       .  A
C651        C652   1.398       .  A
C651        H656   1.081       .  S
C652        C653   1.407       .  A
C653        C654   1.436       .  A
C653        H657   1.081       .  S
C654        C655   1.418       .  A
C654        C695   1.556       .  S
C655        H658   1.083       .  S
C659        C660   1.387       .  A
C659        C664   1.403       .  A
C660        C661   1.397       .  A
C660        H665   1.080       .  S
C661        C670   1.512       .  S
C661        C662   1.409       .  A
C662        C663   1.438       .  A
C662        H666   1.080       .  S
C663        C664   1.417       .  A
C663        C714   1.557   1_565  S
C668        C669   1.395       .  A
C668        C673   1.417       .  A
C669        C670   1.390       .  A
C669        H674   1.083       .  S
C670        C671   1.396       .  A
C671        C672   1.432       .  A
C671        H675   1.078       .  S
C672        C673   1.427       .  A
C672        C695   1.568       .  S
C673        H676   1.082       .  S
C677        C742   1.481       .  S
C677        C678   1.407       .  A
C677        C682   1.388       .  A
C678        C679   1.418       .  A
C679        C680   1.437       .  A
C679        C714   1.559   1_565  S
C680        C681   1.408       .  A
C680        H684   1.080       .  S
C681        C688   1.511       .  S
C681        C682   1.399       .  A
C682        H685   1.081       .  S
C686        C728   1.485       .  S
C686        C687   1.396       .  A
C686        C691   1.414       .  A
C687        C688   1.388       .  A
C687        H692   1.083       .  S
C688        C689   1.397       .  A
C689        C690   1.433       .  A
C689        H693   1.078       .  S
C690        C691   1.425       .  A
C690        C695   1.566       .  S
C691        H694   1.082       .  S
C695        C707   1.558       .  S
C696        C697   1.396       .  A
C696        C701   1.417       .  A
C697        C698   1.389       .  A
C697        H702   1.083       .  S
C698        C709   1.513       .  S
C698        C699   1.397       .  A
C699        C700   1.432       .  A
C699        H703   1.078       .  S
C700        C701   1.428       .  A
C705        C706   1.403       .  A
C705        C710   1.387       .  A
C706        C707   1.416       .  A
C706        H711   1.083       .  S
C707        C708   1.439       .  A
C708        C709   1.409       .  A
C708        H712   1.080       .  S
C709        C710   1.398       .  A
C710        H713   1.080       .  S
O715       Ni927   1.900       .  S
O715        C725   1.284       .  A
O716       Ni723   1.925   1_655  S
O716        C726   1.277       .  A
O717       Ni927   1.902   1_655  S
O717        C727   1.286       .  A
O718       Ni723   1.925       .  S
O718        C728   1.279       .  A
O719      Ni1132   1.904   1_554  S
O719        C728   1.284       .  A
O720       Ni724   1.919   1_655  S
O720        C727   1.276       .  A
O721      Ni1132   1.912   1_654  S
O721        C726   1.288       .  A
O722       Ni724   1.922       .  S
O722        C725   1.278       .  A
Ni723      O1123   1.900   1_554  S
Ni723      O1125   1.902   1_454  S
Ni723     Ni1132   2.386   1_554  S
Ni724       O923   1.904       .  S
Ni724       O925   1.912   1_455  S
Ni724      Ni927   2.386       .  S
C726        C770   1.488       .  S
C727        C752   1.480       .  S
O729       Ni737   1.920       .  S
O730       Ni941   1.911   1_455  S
O730        C740   1.286       .  A
O731       Ni941   1.904       .  S
O731        C741   1.285       .  A
O732       Ni737   1.919   1_455  S
O733      Ni1146   1.906   1_554  S
O733        C742   1.286       .  A
O734       Ni738   1.925   1_655  S
O735       Ni738   1.926       .  S
O736      Ni1146   1.898   1_654  S
O736        C739   1.283       .  A
Ni737      O1138   1.911   1_654  S
Ni737      O1139   1.904   1_554  S
Ni738       O937   1.906       .  S
Ni738       O940   1.898   1_455  S
C739        C761   1.477       .  S
C741        C743   1.486       .  S
C743        C744   1.414       .  A
C743        C748   1.396       .  A
C744        C745   1.425       .  A
C745        C746   1.433       .  A
C746        C747   1.395       .  A
C746        H750   1.078       .  S
C747        C754   1.513       .  S
C747        C748   1.389       .  A
C748        H751   1.083       .  S
C752        C753   1.385       .  A
C752        C757   1.405       .  A
C753        C754   1.397       .  A
C753        H758   1.079       .  S
C754        C755   1.410       .  A
C755        C756   1.438       .  A
C755        H759   1.080       .  S
C756        C757   1.420       .  A
C756        C815   1.562       .  S
C757        H760   1.083       .  S
C761        C762   1.395       .  A
C761        C766   1.408       .  A
C762        C763   1.389       .  A
C762        H767   1.083       .  S
C763        C772   1.509       .  S
C763        C764   1.397       .  A
C764        C765   1.436       .  A
C764        H768   1.076       .  S
C765        C766   1.418       .  A
C765        C816   1.559   1_565  S
C770        C771   1.387       .  A
C770        C775   1.412       .  A
C771        C772   1.398       .  A
C771        H776   1.081       .  S
C772        C773   1.408       .  A
C773        C774   1.434       .  A
C773        H777   1.081       .  S
C774        C775   1.425       .  A
C774        C815   1.568       .  S
C775        H778   1.082       .  S
C779        C780   1.396       .  A
C779        C784   1.419       .  A
C780        C781   1.389       .  A
C780        H785   1.083       .  S
C781        C792   1.512       .  S
C781        C782   1.395       .  A
C782        C783   1.433       .  A
C782        H786   1.078       .  S
C783        C784   1.429       .  A
C788        C789   1.401       .  A
C788        C793   1.387       .  A
C789        C790   1.414       .  A
C789        H794   1.082       .  S
C790        C791   1.438       .  A
C790        C815   1.555       .  S
C791        C792   1.410       .  A
C791        H795   1.080       .  S
C792        C793   1.398       .  A
C793        H796   1.080       .  S
C797        C798   1.386       .  A
C797        C802   1.402       .  A
C798        C799   1.397       .  A
C798        H803   1.081       .  S
C799        C810   1.509       .  S
C799        C800   1.408       .  A
C800        C801   1.437       .  A
C800        H804   1.081       .  S
C801        C802   1.414       .  A
C801        C816   1.553   1_565  S
C806        C807   1.417       .  A
C806        C811   1.395       .  A
C807        C808   1.429       .  A
C807        H812   1.082       .  S
C808        C809   1.434       .  A
C808        C815   1.571       .  S
C809        C810   1.398       .  A
C809        H813   1.076       .  S
C810        C811   1.390       .  A
C811        H814   1.083       .  S
O817       Ni825   1.920       .  S
O818        C828   1.287       .  A
O819       Ni825   1.915       .  S
O820        C830   1.286       .  A
O821       Ni826   1.927       .  S
O822      Ni1030   1.896       .  S
O822        C829   1.284       .  A
O823       Ni826   1.929       .  S
O824      Ni1030   1.898       .  S
O824        C827   1.284       .  A
Ni825      O1022   1.913       .  S
Ni825      O1024   1.910       .  S
C827        C863   1.477       .  S
C828        C983   1.493       .  S
C829       C1001   1.472       .  S
C830        C900   1.491       .  S
O831       Ni839   1.918       .  S
O831        C841   1.277       .  A
O832      Ni1043   1.913       .  S
O832        C842   1.286       .  A
O833      Ni1043   1.911       .  S
O833        C843   1.286       .  A
O834       Ni839   1.916       .  S
O834        C844   1.277       .  A
O835        C844   1.283       .  A
O836       Ni840   1.925       .  S
O836        C843   1.279       .  A
O837       Ni840   1.928       .  S
O837        C842   1.279       .  A
O838        C841   1.284       .  A
Ni840      O1039   1.896       .  S
Ni840      O1042   1.899       .  S
Ni840     Ni1043   2.386       .  S
C841        C909   1.476       .  S
C842       C1010   1.493       .  S
C843        C872   1.490       .  S
C844        C992   1.474       .  S
C845        C944   1.489       .  S
C845        C846   1.395       .  A
C845        C850   1.417       .  A
C846        C847   1.390       .  A
C846        H851   1.083       .  S
C847        C856   1.509       .  S
C847        C848   1.396       .  A
C848        C849   1.432       .  A
C848        H852   1.078       .  S
C849        C850   1.426       .  A
C854        C929   1.479       .  S
C854        C855   1.388       .  A
C854        C859   1.405       .  A
C855        C856   1.398       .  A
C855        H860   1.081       .  S
C856        C857   1.407       .  A
C857        C858   1.436       .  A
C857        H861   1.081       .  S
C858        C859   1.418       .  A
C858        C899   1.556       .  S
C859        H862   1.083       .  S
C863        C864   1.387       .  A
C863        C868   1.403       .  A
C864        C865   1.397       .  A
C864        H869   1.080       .  S
C865        C874   1.512       .  S
C865        C866   1.409       .  A
C866        C867   1.438       .  A
C866        H870   1.080       .  S
C867        C868   1.417       .  A
C867        C918   1.557   1_565  S
C872        C873   1.395       .  A
C872        C877   1.417       .  A
C873        C874   1.390       .  A
C873        H878   1.083       .  S
C874        C875   1.396       .  A
C875        C876   1.432       .  A
C875        H879   1.078       .  S
C876        C877   1.427       .  A
C876        C899   1.568       .  S
C877        H880   1.082       .  S
C881        C946   1.481       .  S
C881        C882   1.407       .  A
C881        C886   1.388       .  A
C882        C883   1.418       .  A
C883        C884   1.437       .  A
C883        C918   1.559   1_565  S
C884        C885   1.408       .  A
C884        H888   1.080       .  S
C885        C892   1.511       .  S
C885        C886   1.399       .  A
C886        H889   1.081       .  S
C890        C932   1.485       .  S
C890        C891   1.396       .  A
C890        C895   1.414       .  A
C891        C892   1.388       .  A
C891        H896   1.083       .  S
C892        C893   1.397       .  A
C893        C894   1.433       .  A
C893        H897   1.077       .  S
C894        C895   1.425       .  A
C894        C899   1.566       .  S
C895        H898   1.082       .  S
C899        C911   1.558       .  S
C900        C901   1.396       .  A
C900        C905   1.417       .  A
C901        C902   1.389       .  A
C901        H906   1.083       .  S
C902        C913   1.513       .  S
C902        C903   1.397       .  A
C903        C904   1.432       .  A
C903        H907   1.078       .  S
C904        C905   1.428       .  A
C909        C910   1.403       .  A
C909        C914   1.387       .  A
C910        C911   1.416       .  A
C910        H915   1.083       .  S
C911        C912   1.439       .  A
C912        C913   1.409       .  A
C912        H916   1.080       .  S
C913        C914   1.398       .  A
C914        H917   1.080       .  S
O919      Ni1131   1.900       .  S
O919        C929   1.284       .  A
O920       Ni927   1.925   1_655  S
O920        C930   1.277       .  A
O921      Ni1131   1.902   1_655  S
O921        C931   1.286       .  A
O922       Ni927   1.925       .  S
O922        C932   1.279       .  A
O923        C932   1.284       .  A
O924       Ni928   1.919   1_655  S
O924        C931   1.276       .  A
O925        C930   1.288       .  A
O926       Ni928   1.922       .  S
O926        C929   1.278       .  A
Ni928      O1127   1.904       .  S
Ni928      O1129   1.912   1_455  S
Ni928     Ni1131   2.386       .  S
C930        C974   1.488       .  S
C931        C956   1.480       .  S
O933       Ni941   1.920       .  S
O934      Ni1145   1.911   1_455  S
O934        C944   1.286       .  A
O935      Ni1145   1.904       .  S
O935        C945   1.285       .  A
O936       Ni941   1.919   1_455  S
O937        C946   1.286       .  A
O938       Ni942   1.925   1_655  S
O939       Ni942   1.926       .  S
O940        C943   1.283       .  A
Ni942      O1141   1.906       .  S
Ni942      O1144   1.898   1_455  S
C943        C965   1.477       .  S
C945        C947   1.486       .  S
C947        C948   1.414       .  A
C947        C952   1.396       .  A
C948        C949   1.425       .  A
C949        C950   1.433       .  A
C950        C951   1.395       .  A
C950        H954   1.078       .  S
C951        C958   1.513       .  S
C951        C952   1.389       .  A
C952        H955   1.083       .  S
C956        C957   1.385       .  A
C956        C961   1.405       .  A
C957        C958   1.397       .  A
C957        H962   1.079       .  S
C958        C959   1.410       .  A
C959        C960   1.438       .  A
C959        H963   1.080       .  S
C960        C961   1.420       .  A
C960       C1019   1.562       .  S
C961        H964   1.083       .  S
C965        C966   1.395       .  A
C965        C970   1.408       .  A
C966        C967   1.389       .  A
C966        H971   1.083       .  S
C967        C976   1.509       .  S
C967        C968   1.397       .  A
C968        C969   1.436       .  A
C968        H972   1.076       .  S
C969        C970   1.418       .  A
C969       C1020   1.559   1_565  S
C974        C975   1.387       .  A
C974        C979   1.412       .  A
C975        C976   1.398       .  A
C975        H980   1.081       .  S
C976        C977   1.408       .  A
C977        C978   1.434       .  A
C977        H981   1.081       .  S
C978        C979   1.425       .  A
C978       C1019   1.568       .  S
C979        H982   1.082       .  S
C983        C984   1.396       .  A
C983        C988   1.419       .  A
C984        C985   1.389       .  A
C984        H989   1.083       .  S
C985        C996   1.512       .  S
C985        C986   1.395       .  A
C986        C987   1.433       .  A
C986        H990   1.078       .  S
C987        C988   1.429       .  A
C992        C993   1.401       .  A
C992        C997   1.387       .  A
C993        C994   1.414       .  A
C993        H998   1.082       .  S
C994        C995   1.438       .  A
C994       C1019   1.555       .  S
C995        C996   1.410       .  A
C995        H999   1.080       .  S
C996        C997   1.398       .  A
C997       H1000   1.080       .  S
C1001      C1002   1.386       .  A
C1001      C1006   1.402       .  A
C1002      C1003   1.397       .  A
C1002      H1007   1.081       .  S
C1003      C1014   1.509       .  S
C1003      C1004   1.408       .  A
C1004      C1005   1.437       .  A
C1004      H1008   1.081       .  S
C1005      C1006   1.414       .  A
C1005      C1020   1.553   1_565  S
C1010      C1011   1.417       .  A
C1010      C1015   1.395       .  A
C1011      C1012   1.429       .  A
C1011      H1016   1.082       .  S
C1012      C1013   1.434       .  A
C1012      C1019   1.571       .  S
C1013      C1014   1.398       .  A
C1013      H1017   1.076       .  S
C1014      C1015   1.390       .  A
C1015      H1018   1.083       .  S
O1021     Ni1029   1.920       .  S
O1022      C1032   1.287       .  A
O1023     Ni1029   1.915       .  S
O1024      C1034   1.286       .  A
O1025     Ni1030   1.927       .  S
O1026      C1033   1.284       .  A
O1027     Ni1030   1.929       .  S
O1028      C1031   1.284       .  A
C1031      C1067   1.477       .  S
C1032      C1187   1.493       .  S
C1033      C1205   1.472       .  S
C1034      C1104   1.491       .  S
O1035     Ni1043   1.918       .  S
O1035      C1045   1.277       .  A
O1036      C1046   1.286       .  A
O1037      C1047   1.286       .  A
O1038     Ni1043   1.916       .  S
O1038      C1048   1.277       .  A
O1039      C1048   1.283       .  A
O1040     Ni1044   1.925       .  S
O1040      C1047   1.279       .  A
O1041     Ni1044   1.928       .  S
O1041      C1046   1.279       .  A
O1042      C1045   1.284       .  A
C1045      C1113   1.476       .  S
C1046      C1214   1.493       .  S
C1047      C1076   1.490       .  S
C1048      C1196   1.474       .  S
C1049      C1148   1.489       .  S
C1049      C1050   1.395       .  A
C1049      C1054   1.417       .  A
C1050      C1051   1.390       .  A
C1050      H1055   1.083       .  S
C1051      C1060   1.509       .  S
C1051      C1052   1.396       .  A
C1052      C1053   1.432       .  A
C1052      H1056   1.078       .  S
C1053      C1054   1.426       .  A
C1058      C1133   1.479       .  S
C1058      C1059   1.388       .  A
C1058      C1063   1.405       .  A
C1059      C1060   1.398       .  A
C1059      H1064   1.081       .  S
C1060      C1061   1.407       .  A
C1061      C1062   1.436       .  A
C1061      H1065   1.081       .  S
C1062      C1063   1.418       .  A
C1062      C1103   1.556       .  S
C1063      H1066   1.083       .  S
C1067      C1068   1.387       .  A
C1067      C1072   1.403       .  A
C1068      C1069   1.397       .  A
C1068      H1073   1.080       .  S
C1069      C1078   1.512       .  S
C1069      C1070   1.409       .  A
C1070      C1071   1.438       .  A
C1070      H1074   1.080       .  S
C1071      C1072   1.417       .  A
C1071      C1122   1.557   1_565  S
C1076      C1077   1.395       .  A
C1076      C1081   1.417       .  A
C1077      C1078   1.390       .  A
C1077      H1082   1.083       .  S
C1078      C1079   1.396       .  A
C1079      C1080   1.432       .  A
C1079      H1083   1.078       .  S
C1080      C1081   1.427       .  A
C1080      C1103   1.568       .  S
C1081      H1084   1.082       .  S
C1085      C1150   1.481       .  S
C1085      C1086   1.407       .  A
C1085      C1090   1.388       .  A
C1086      C1087   1.418       .  A
C1087      C1088   1.437       .  A
C1087      C1122   1.559   1_565  S
C1088      C1089   1.408       .  A
C1088      H1092   1.080       .  S
C1089      C1096   1.511       .  S
C1089      C1090   1.399       .  A
C1090      H1093   1.081       .  S
C1094      C1136   1.485       .  S
C1094      C1095   1.396       .  A
C1094      C1099   1.414       .  A
C1095      C1096   1.388       .  A
C1095      H1100   1.083       .  S
C1096      C1097   1.397       .  A
C1097      C1098   1.433       .  A
C1097      H1101   1.078       .  S
C1098      C1099   1.425       .  A
C1098      C1103   1.566       .  S
C1099      H1102   1.082       .  S
C1103      C1115   1.558       .  S
C1104      C1105   1.396       .  A
C1104      C1109   1.417       .  A
C1105      C1106   1.389       .  A
C1105      H1110   1.083       .  S
C1106      C1117   1.513       .  S
C1106      C1107   1.397       .  A
C1107      C1108   1.432       .  A
C1107      H1111   1.078       .  S
C1108      C1109   1.428       .  A
C1113      C1114   1.403       .  A
C1113      C1118   1.387       .  A
C1114      C1115   1.416       .  A
C1114      H1119   1.083       .  S
C1115      C1116   1.439       .  A
C1116      C1117   1.409       .  A
C1116      H1120   1.080       .  S
C1117      C1118   1.398       .  A
C1118      H1121   1.080       .  S
O1123      C1133   1.284       .  A
O1124     Ni1131   1.925   1_655  S
O1124      C1134   1.277       .  A
O1125      C1135   1.286       .  A
O1126     Ni1131   1.925       .  S
O1126      C1136   1.279       .  A
O1127      C1136   1.284       .  A
O1128     Ni1132   1.919   1_655  S
O1128      C1135   1.276       .  A
O1129      C1134   1.288       .  A
O1130     Ni1132   1.922       .  S
O1130      C1133   1.278       .  A
C1134      C1178   1.488       .  S
C1135      C1160   1.480       .  S
O1137     Ni1145   1.920       .  S
O1138      C1148   1.286       .  A
O1139      C1149   1.285       .  A
O1140     Ni1145   1.919   1_455  S
O1141      C1150   1.286       .  A
O1142     Ni1146   1.925   1_655  S
O1143     Ni1146   1.926       .  S
O1144      C1147   1.283       .  A
C1147      C1169   1.477       .  S
C1149      C1151   1.486       .  S
C1151      C1152   1.414       .  A
C1151      C1156   1.396       .  A
C1152      C1153   1.425       .  A
C1153      C1154   1.433       .  A
C1154      C1155   1.395       .  A
C1154      H1158   1.078       .  S
C1155      C1162   1.513       .  S
C1155      C1156   1.389       .  A
C1156      H1159   1.083       .  S
C1160      C1161   1.385       .  A
C1160      C1165   1.405       .  A
C1161      C1162   1.397       .  A
C1161      H1166   1.079       .  S
C1162      C1163   1.410       .  A
C1163      C1164   1.438       .  A
C1163      H1167   1.080       .  S
C1164      C1165   1.420       .  A
C1164      C1223   1.562       .  S
C1165      H1168   1.083       .  S
C1169      C1170   1.395       .  A
C1169      C1174   1.408       .  A
C1170      C1171   1.389       .  A
C1170      H1175   1.083       .  S
C1171      C1180   1.509       .  S
C1171      C1172   1.397       .  A
C1172      C1173   1.436       .  A
C1172      H1176   1.076       .  S
C1173      C1174   1.418       .  A
C1173      C1224   1.559   1_565  S
C1178      C1179   1.387       .  A
C1178      C1183   1.412       .  A
C1179      C1180   1.398       .  A
C1179      H1184   1.081       .  S
C1180      C1181   1.408       .  A
C1181      C1182   1.434       .  A
C1181      H1185   1.081       .  S
C1182      C1183   1.425       .  A
C1182      C1223   1.568       .  S
C1183      H1186   1.082       .  S
C1187      C1188   1.396       .  A
C1187      C1192   1.419       .  A
C1188      C1189   1.389       .  A
C1188      H1193   1.083       .  S
C1189      C1200   1.512       .  S
C1189      C1190   1.395       .  A
C1190      C1191   1.433       .  A
C1190      H1194   1.078       .  S
C1191      C1192   1.429       .  A
C1196      C1197   1.401       .  A
C1196      C1201   1.387       .  A
C1197      C1198   1.414       .  A
C1197      H1202   1.082       .  S
C1198      C1199   1.438       .  A
C1198      C1223   1.555       .  S
C1199      C1200   1.410       .  A
C1199      H1203   1.080       .  S
C1200      C1201   1.398       .  A
C1201      H1204   1.080       .  S
C1205      C1206   1.386       .  A
C1205      C1210   1.402       .  A
C1206      C1207   1.397       .  A
C1206      H1211   1.081       .  S
C1207      C1218   1.509       .  S
C1207      C1208   1.408       .  A
C1208      C1209   1.437       .  A
C1208      H1212   1.081       .  S
C1209      C1210   1.414       .  A
C1209      C1224   1.553   1_565  S
C1214      C1215   1.417       .  A
C1214      C1219   1.395       .  A
C1215      C1216   1.429       .  A
C1215      H1220   1.082       .  S
C1216      C1217   1.434       .  A
C1216      C1223   1.571       .  S
C1217      C1218   1.398       .  A
C1217      H1221   1.076       .  S
C1218      C1219   1.390       .  A
C1219      H1222   1.083       .  S
