geometry optimzed in LAMMPS
_audit_creation_date              2020-11-30 
_audit_creation_method            'lammps2cif' 
_symmetry_space_group_name_H-M    'P1' 
_symmetry_Int_Tables_number       1 
_symmetry_cell_setting            triclinic 
loop_ 
_symmetry_equiv_pos_as_xyz 
  x,y,z 
_cell_length_a                    51.72379334 
_cell_length_b                    42.51103046866429 
_cell_length_c                    39.20500520865418 
_cell_angle_alpha                 90.24425611163475 
_cell_angle_beta                  101.37959029749234 
_cell_angle_gamma                 90.22301168048891 
loop_ 
_atom_site_label 
_atom_site_type_symbol 
_atom_site_fract_x 
_atom_site_fract_y 
_atom_site_fract_z 
_atom_site_charge 
C1          C  0.94120380  0.63762410  0.36697298     0.04100
C2          C  0.93478020  0.66452691  0.38441961    -0.12100
C3          C  0.93994091  0.66632395  0.42089536     0.01600
C4          C  0.95166095  0.64050743  0.44010133    -0.10600
C5          C  0.95862882  0.61342294  0.42332216     0.04100
C6          C  0.95320526  0.61215684  0.38671888    -0.10000
H7          H  0.92576863  0.68426745  0.36950169     0.09700
H8          H  0.95506482  0.64125728  0.46818778     0.07200
H9          H  0.95916390  0.59179484  0.37365452     0.07000
C10         C  0.05523394  0.41972738  0.61205176     0.04100
C11         C  0.06291529  0.39219543  0.59705911    -0.12100
C12         C  0.06167268  0.38995018  0.56099559     0.01600
C13         C  0.05202174  0.41565737  0.53983851    -0.10600
C14         C  0.04413193  0.44341687  0.55449095     0.04100
C15         C  0.04611500  0.44531778  0.59068500    -0.10000
H16         H  0.06996859  0.37253021  0.61366242     0.09700
H17         H  0.05110778  0.41440808  0.51206380     0.07200
H18         H  0.03954610  0.46624394  0.60222674     0.07000
O19         O  0.59229301  0.67679832  0.94015536    -0.56900
C20         C  0.58941506  0.62137584  0.86447202     0.75800
O21         O  0.64438914  0.60719471  0.98231609    -0.58000
C22         C  0.59155728  0.67830317  0.97215834     0.75700
C23         C  0.56466491  0.57610885  0.95481212     0.78100
Cd24       Cd  0.60306997  0.62036770  0.93933071     1.37500
O25         O  0.59319654  0.64632940  0.88250987    -0.56900
O26         O  0.55900623  0.60422941  0.94633877    -0.55700
C27         C  0.65986487  0.61129305  0.96146371     0.78100
O28         O  0.58823500  0.56770493  0.95550654    -0.58000
O29         O  0.59243002  0.59562795  0.88088481    -0.56500
O30         O  0.59668308  0.65324772  0.98938611    -0.56500
O31         O  0.64922827  0.61858261  0.93073269    -0.55700
O32         O  0.41445707  0.43261829  0.10938447    -0.56900
C33         C  0.40496918  0.34464589  0.02981449     0.75800
O34         O  0.35878024  0.41675176  0.00542987    -0.58000
C35         C  0.40501883  0.41166552  0.12629577     0.75700
C36         C  0.43653421  0.44874897  0.02865814     0.78100
Cd37       Cd  0.39800061  0.40854090  0.05172585     1.37500
O38         O  0.41822421  0.35583670  0.05778677    -0.56900
O39         O  0.44252497  0.42213739  0.04201254    -0.55700
C40         C  0.34363500  0.42508695  0.02548090     0.78100
O41         O  0.41267050  0.45682716  0.02537404    -0.58000
O42         O  0.38825808  0.36271392  0.01203770    -0.56500
O43         O  0.39215732  0.38962175  0.10881098    -0.56500
O44         O  0.35383146  0.42733754  0.05749198    -0.55700
O45         O  0.92323546  0.68398587  0.05048922    -0.56900
C46         C  0.90821549  0.63020837  0.12123457     0.75800
O47         O  0.85993759  0.62364444  0.00341125    -0.58000
C48         C  0.90830925  0.69605014  0.02445728     0.75700
C49         C  0.93746227  0.59198870  0.02102649     0.78100
Cd50       Cd  0.90068695  0.63262101  0.04693432     1.37500
O51         O  0.90211551  0.65522730  0.10432672    -0.56900
O52         O  0.94416802  0.61856017  0.03443663    -0.55700
C53         C  0.84543654  0.61886241  0.02541516     0.78100
O54         O  0.91374785  0.58381020  0.01958762    -0.58000
O55         O  0.91123778  0.60578386  0.10386439    -0.56500
O56         O  0.88957205  0.67901038  0.00872448    -0.56500
O57         O  0.85666781  0.61896605  0.05709807    -0.55700
O58         O  0.09428109  0.36214915  0.93018788    -0.56900
C59         C  0.08689426  0.42203290  0.85666854     0.75800
O60         O  0.08733926  0.47119293  0.94784426    -0.58000
C61         C  0.09451442  0.35970709  0.96237443     0.75700
C62         C  0.15895682  0.42799480  0.95301795     0.78100
Cd63       Cd  0.10252105  0.41926866  0.93111723     1.37500
O64         O  0.08727113  0.39661416  0.87336749    -0.56900
O65         O  0.14875553  0.41566936  0.92410783    -0.55700
C66         C  0.06428000  0.46192400  0.94926807     0.78100
O67         O  0.14316424  0.43733467  0.97171469    -0.58000
O68         O  0.09445071  0.44660739  0.87421988    -0.56500
O69         O  0.09844030  0.38474637  0.98023818    -0.56500
O70         O  0.05911321  0.43321592  0.94264944    -0.55700
C71         C  0.43255075  0.41764753  0.37163523     0.04100
C72         C  0.44250017  0.44426735  0.39126041    -0.12100
C73         C  0.44764741  0.44349095  0.42770667     0.01600
C74         C  0.44220516  0.41594654  0.44467444    -0.10600
C75         C  0.43241222  0.38903731  0.42552453     0.04100
C76         C  0.42790230  0.39001700  0.38903594    -0.10000
H77         H  0.44591678  0.46582873  0.37824043     0.09700
H78         H  0.44603289  0.41528477  0.47280961     0.07200
H79         H  0.42146507  0.36894986  0.37421061     0.07000
C80         C  0.54939690  0.63587886  0.61912805     0.04100
C81         C  0.53791987  0.61095774  0.59782937    -0.12100
C82         C  0.53398630  0.61297607  0.56140178     0.01600
C83         C  0.54191860  0.64041582  0.54621398    -0.10600
C84         C  0.55359870  0.66569346  0.56708175     0.04100
C85         C  0.55727770  0.66304137  0.60349378    -0.10000
H86         H  0.53190753  0.58995242  0.60967764     0.09700
H87         H  0.53886019  0.64208416  0.51818772     0.07200
H88         H  0.56616368  0.68229870  0.61979706     0.07000
C89         C  0.55914276  0.90386381  0.12452932     0.04100
C90         C  0.56211490  0.87512027  0.10787166    -0.12100
C91         C  0.55335197  0.87137144  0.07182249     0.01600
C92         C  0.54182546  0.89708434  0.05218433    -0.10600
C93         C  0.53860536  0.92601073  0.06826172     0.04100
C94         C  0.54745775  0.92922361  0.10435153    -0.10000
H95         H  0.57186591  0.85576668  0.12279568     0.09700
H96         H  0.53446704  0.89422736  0.02453795     0.07200
H97         H  0.54494184  0.95148362  0.11666792     0.07000
C98         C  0.44732365  0.12484918  0.87786439     0.04100
C99         C  0.45806780  0.09874535  0.89747943    -0.12100
C100        C  0.46267053  0.09939594  0.93415477     0.01600
C101        C  0.45656903  0.12686478  0.95108123    -0.10600
C102        C  0.44518241  0.15275347  0.93179903     0.04100
C103        C  0.44067532  0.15152844  0.89539848    -0.10000
H104        H  0.46274551  0.07789376  0.88411606     0.09700
H105        H  0.46014392  0.12807613  0.97918178     0.07200
H106        H  0.43175786  0.17156220  0.88082479     0.07000
O107        O  0.58594434  0.86669508  0.43921522    -0.56900
C108        C  0.59853067  0.91785315  0.36963014     0.75800
O109        O  0.59317824  0.97151782  0.46585337    -0.58000
C110        C  0.59335097  0.85981258  0.47092286     0.75700
C111        C  0.66273943  0.92918233  0.46532089     0.78100
Cd112      Cd  0.60599372  0.91985412  0.44358399     1.37500
O113        O  0.60149722  0.89323604  0.38796758    -0.56900
O114        O  0.65175514  0.92471773  0.43392313    -0.55700
C115        C  0.56861744  0.96620654  0.45897274     0.78100
O116        O  0.64765435  0.92977356  0.48709349    -0.58000
O117        O  0.59905208  0.94393173  0.38551386    -0.56500
O118        O  0.60647210  0.88060725  0.49018626    -0.56500
O119        O  0.56144269  0.93997054  0.44502605    -0.55700
O120        O  0.41050577  0.15639810  0.61568060    -0.56900
C121        C  0.40754327  0.19350609  0.52710456     0.75800
O122        O  0.41831296  0.08527235  0.53145711    -0.58000
C123        C  0.41470442  0.13068658  0.63196134     0.75700
C124        C  0.34782648  0.11807893  0.53949936     0.78100
Cd125      Cd  0.40330372  0.13292419  0.55752631     1.37500
O126        O  0.41914408  0.18732888  0.55777062    -0.56900
O127        O  0.35860555  0.12753992  0.56955672    -0.55700
C128        C  0.44231765  0.09331437  0.53597295     0.78100
O129        O  0.36273100  0.11450314  0.51780579    -0.58000
O130        O  0.39390736  0.17171557  0.51030429    -0.56500
O131        O  0.41345731  0.10579571  0.61383383    -0.56500
O132        O  0.44839740  0.11962949  0.55044833    -0.55700
O133        O  0.91235677  0.89442006  0.61266358    -0.56900
C134        C  0.90879945  0.85733384  0.52907600     0.75800
O135        O  0.86231990  0.92572134  0.51290841    -0.58000
C136        C  0.91557648  0.91953735  0.63041850     0.75700
C137        C  0.94243967  0.95872148  0.53142476     0.78100
Cd138      Cd  0.90403774  0.91944902  0.55572543     1.37500
O139        O  0.91924008  0.86452962  0.56007298    -0.56900
O140        O  0.94749649  0.93104365  0.54206023    -0.55700
C141        C  0.84803353  0.93065244  0.53504936     0.78100
O142        O  0.91958143  0.96879287  0.53213520    -0.58000
O143        O  0.89617868  0.87870404  0.51065791    -0.56500
O144        O  0.91334308  0.94516344  0.61371788    -0.56500
O145        O  0.85969790  0.93189127  0.56654492    -0.55700
O146        O  0.10564587  0.15443903  0.38634816    -0.56900
C147        C  0.10122304  0.19453347  0.46803291     0.75800
O148        O  0.09462638  0.08107635  0.46658891    -0.58000
C149        C  0.10013213  0.12910683  0.36939498     0.75700
C150        C  0.16397761  0.11797647  0.46778097     0.78100
Cd151      Cd  0.10902135  0.13149831  0.44401122     1.37500
O152        O  0.09191240  0.18591413  0.43713416    -0.56900
O153        O  0.15331651  0.11711780  0.43589879    -0.55700
C154        C  0.07126438  0.08998687  0.46590273     0.78100
O155        O  0.14921382  0.12457384  0.48888745    -0.58000
O156        O  0.11440286  0.17432845  0.48768503    -0.56500
O157        O  0.09875900  0.10439904  0.38687272    -0.56500
O158        O  0.06568959  0.11769053  0.45564736    -0.55700
C159        C  0.06868506  0.13640992  0.12355659     0.04100
C160        C  0.07459344  0.16378155  0.10652482    -0.12100
C161        C  0.06774144  0.16657201  0.07014719     0.01600
C162        C  0.05590756  0.14076444  0.05052736    -0.10600
C163        C  0.05036751  0.11290962  0.06694822     0.04100
C164        C  0.05661529  0.11103838  0.10342378    -0.10000
H165        H  0.08463934  0.18307160  0.12163891     0.09700
H166        H  0.05003242  0.14268827  0.02258270     0.07200
H167        H  0.05192030  0.08979903  0.11600604     0.07000
C168        C  0.95590987  0.91502781  0.87595998     0.04100
C169        C  0.96886663  0.93990027  0.89601427    -0.12100
C170        C  0.97410410  0.93852771  0.93253037     0.01600
C171        C  0.96622054  0.91177282  0.94891034    -0.10600
C172        C  0.95275326  0.88699157  0.92915336     0.04100
C173        C  0.94787515  0.88874540  0.89271084    -0.10000
H174        H  0.97470347  0.96041128  0.88308897     0.09700
H175        H  0.97015488  0.91038336  0.97700308     0.07200
H176        H  0.93759777  0.86967354  0.87730259     0.07000
C177        C  0.99722713  0.99880368  0.99548112     0.21300
C178        C  0.99961435  0.01510098  0.02710865    -0.38600
C179        C  0.01494963  0.04257782  0.03011200     0.20300
C180        C  0.02673794  0.05318971  0.00352866     0.22900
C181        C  0.02434481  0.03688455  0.97188257    -0.39100
C182        C  0.00917671  0.00925930  0.96899127     0.21700
N183        N  0.98368211  0.97212931  0.98618390    -0.32400
C184        C  0.98694606  0.96545367  0.95342862    -0.09900
C185        C  0.00286625  0.98813985  0.94192361    -0.28700
N186        N  0.04047184  0.07972568  0.01300075    -0.45300
C187        C  0.03763338  0.08596336  0.04602771    -0.04600
C188        C  0.02174804  0.06325734  0.05751121    -0.22000
H189        H  0.99037828  0.00686734  0.04792356     0.19800
H190        H  0.03366514  0.04504541  0.95111541     0.18600
H191        H  0.00900944  0.98920573  0.91712171     0.14900
H192        H  0.01590146  0.06196552  0.08249278     0.14800
H193        H  0.97234570  0.95984021  0.00103363     0.32900
H194        H  0.05165991  0.09225545  0.99815198     0.35700
C195        C  0.07966671  0.11712393  0.21469341     0.21300
C196        C  0.08182183  0.09785225  0.24416783    -0.38600
C197        C  0.08729732  0.11357675  0.27640016     0.20300
C198        C  0.09035831  0.14593575  0.27887904     0.22900
C199        C  0.08814787  0.16508628  0.24951595    -0.39100
C200        C  0.08272299  0.14939789  0.21745619     0.21700
N201        N  0.07452790  0.10814679  0.18109136    -0.32400
C202        C  0.07430242  0.13500071  0.16226217    -0.09900
C203        C  0.07933227  0.16115871  0.18434763    -0.28700
N204        N  0.09539126  0.15531443  0.31221305    -0.45300
C205        C  0.09550976  0.12882554  0.33125451    -0.04600
C206        C  0.09054578  0.10222211  0.30991421    -0.22000
H207        H  0.07938304  0.07257117  0.24215767     0.19800
H208        H  0.09048812  0.19038337  0.25149652     0.18600
H209        H  0.07996966  0.18571006  0.17744328     0.14900
H210        H  0.08943342  0.07797729  0.31783990     0.14800
H211        H  0.07162591  0.08509301  0.17191515     0.32900
H212        H  0.09844367  0.17840025  0.32146402     0.35700
C213        C  0.92996305  0.93372592  0.72205225     0.21300
C214        C  0.93413943  0.95148915  0.75291343    -0.38600
C215        C  0.94065032  0.93421507  0.78379078     0.20300
C216        C  0.94275384  0.90177258  0.78388713     0.22900
C217        C  0.93867885  0.88401758  0.75307252    -0.39100
C218        C  0.93215735  0.90126547  0.72222731     0.21700
N219        N  0.92362112  0.94449053  0.68930037    -0.32400
C220        C  0.92177180  0.91866146  0.66857933    -0.09900
C221        C  0.92689543  0.89127735  0.68813995    -0.28700
N222        N  0.94863639  0.89088119  0.81655388    -0.45300
C223        C  0.95035763  0.91656785  0.83753597    -0.04600
C224        C  0.94559363  0.94407147  0.81796895    -0.22000
H225        H  0.93237773  0.97685110  0.75288863     0.19800
H226        H  0.94031559  0.85863954  0.75312056     0.18600
H227        H  0.92695724  0.86733159  0.67865464     0.14900
H228        H  0.94517229  0.96798293  0.82741657     0.14800
H229        H  0.92078737  0.96791734  0.68152012     0.32900
H230        H  0.95146236  0.86739194  0.82397803     0.35700
C231        C  0.98156229  0.01823382  0.50210876     0.21300
C232        C  0.98782406  0.04850150  0.49225702    -0.38600
C233        C  0.01357687  0.05258801  0.48685936     0.20300
C234        C  0.03179455  0.02842517  0.49089331     0.22900
C235        C  0.02549806  0.99804110  0.50062032    -0.39100
C236        C  0.99969141  0.99396489  0.50612216     0.21700
N237        N  0.95866299  0.00863266  0.50989510    -0.32400
C238        C  0.96229171  0.97808633  0.51916764    -0.09900
C239        C  0.98754959  0.96800889  0.51693479    -0.28700
N240        N  0.05498596  0.03861496  0.48439684    -0.45300
C241        C  0.05129646  0.06941851  0.47607657    -0.04600
C242        C  0.02578975  0.07894221  0.47736146    -0.22000
H243        H  0.97375572  0.06756095  0.48933194     0.19800
H244        H  0.03968810  0.97910072  0.50402135     0.18600
H245        H  0.99604285  0.94500730  0.52314481     0.14900
H246        H  0.01730427  0.10205033  0.47190424     0.14800
H247        H  0.94182788  0.02219041  0.50966596     0.32900
H248        H  0.07211210  0.02544703  0.48527457     0.35700
C249        C  0.23071221  0.11167922  0.51247494     0.21300
C250        C  0.25208703  0.11500402  0.54048595    -0.38600
C251        C  0.27712843  0.11193044  0.53223322     0.20300
C252        C  0.28059560  0.10598863  0.49866403     0.22900
C253        C  0.25922702  0.10264820  0.47068591    -0.39100
C254        C  0.23421229  0.10571904  0.47892536     0.21700
N255        N  0.20505155  0.11562525  0.51301737    -0.32400
C256        C  0.19223863  0.11235292  0.47954306    -0.09900
C257        C  0.20969687  0.10591324  0.45756436    -0.28700
N258        N  0.30632027  0.10612779  0.49724701    -0.45300
C259        C  0.31929482  0.11242451  0.53008949    -0.04600
C260        C  0.30179664  0.11596604  0.55270496    -0.22000
H261        H  0.24944062  0.12051949  0.56655581     0.19800
H262        H  0.26189781  0.09888179  0.44428074     0.18600
H263        H  0.20516583  0.10317785  0.42955200     0.14900
H264        H  0.30645187  0.12208274  0.58006768     0.14800
H265        H  0.19688108  0.12143415  0.53454059     0.32900
H266        H  0.31447653  0.10344606  0.47506608     0.35700
C267        C  0.73049489  0.93724495  0.50767491     0.21300
C268        C  0.75208857  0.93827986  0.53575394    -0.38600
C269        C  0.77710688  0.93729058  0.52692933     0.20300
C270        C  0.78035184  0.93558421  0.49274820     0.22900
C271        C  0.75879738  0.93474315  0.46470479    -0.39100
C272        C  0.73380527  0.93550826  0.47352582     0.21700
N273        N  0.70473116  0.93597670  0.50915684    -0.32400
C274        C  0.69157998  0.93319034  0.47572817    -0.09900
C275        C  0.70905635  0.93298829  0.45278049    -0.28700
N276        N  0.80603359  0.93356951  0.49127947    -0.45300
C277        C  0.81926611  0.93406761  0.52475392    -0.04600
C278        C  0.80191958  0.93635660  0.54776111    -0.22400
H279        H  0.74959383  0.93899072  0.56251543     0.19800
H280        H  0.76129573  0.93278477  0.43801131     0.18600
H281        H  0.70432177  0.93035629  0.42476418     0.14900
H282        H  0.80678352  0.93646920  0.57591001     0.14800
H283        H  0.69663944  0.93607026  0.53155132     0.32900
H284        H  0.81403839  0.93136983  0.46891961     0.35700
C285        C  0.51227301  0.00659549  0.47657070     0.21300
C286        C  0.48569972  0.00994493  0.47878888    -0.38600
C287        C  0.47990927  0.03570557  0.49831934     0.20300
C288        C  0.49909424  0.05662406  0.51446584     0.22900
C289        C  0.52575571  0.05321315  0.51236862    -0.39100
C290        C  0.53156312  0.02739494  0.49272189     0.21700
N291        N  0.52294227  0.98313957  0.46101597    -0.32400
C292        C  0.54927981  0.98872681  0.46761299    -0.09900
C293        C  0.55540619  0.01639346  0.48688126    -0.28700
N294        N  0.48827334  0.07958887  0.53067342    -0.45300
C295        C  0.46204168  0.07318106  0.52458603    -0.04600
C296        C  0.45612058  0.04589066  0.50478340    -0.22000
H297        H  0.47063774  0.99358325  0.46634909     0.19800
H298        H  0.54085730  0.06934997  0.52519830     0.18600
H299        H  0.57478594  0.02618421  0.49682334     0.14900
H300        H  0.43689156  0.03541603  0.49556483     0.14800
H301        H  0.51303036  0.96375462  0.44802359     0.32900
H302        H  0.49801989  0.09869741  0.54445178     0.35700
C303        C  0.43571568  0.14151848  0.78636615     0.21300
C304        C  0.43129923  0.16065537  0.75680317    -0.38600
C305        C  0.42769540  0.14480437  0.72486127     0.20300
C306        C  0.42853602  0.11233479  0.72249633     0.22900
C307        C  0.43283912  0.09314225  0.75215958    -0.39100
C308        C  0.43636857  0.10907271  0.78421589     0.21700
N309        N  0.43971977  0.15105987  0.81960860    -0.32400
C310        C  0.44280273  0.12456459  0.83918876    -0.09900
C311        C  0.44087454  0.09780862  0.81783339    -0.28700
N312        N  0.42434819  0.10309264  0.68902339    -0.45300
C313        C  0.42064160  0.12990044  0.67010991    -0.04600
C314        C  0.42265250  0.15638902  0.69152199    -0.22000
H315        H  0.43061898  0.18604611  0.75856351     0.19800
H316        H  0.43334551  0.06774432  0.75040215     0.18600
H317        H  0.44222514  0.07339221  0.82561863     0.14900
H318        H  0.42046497  0.18078578  0.68372357     0.14800
H319        H  0.44067826  0.17440835  0.82808874     0.32900
H320        H  0.42374233  0.08001907  0.67961641     0.35700
C321        C  0.57847044  0.89456446  0.21717301     0.21300
C322        C  0.58401085  0.87801811  0.24856470    -0.38600
C323        C  0.58845187  0.89653231  0.27876173     0.20300
C324        C  0.58754123  0.92907900  0.27786895     0.22900
C325        C  0.58206988  0.94564446  0.24640242    -0.39100
C326        C  0.57752344  0.92704566  0.21612637     0.21700
N327        N  0.57253362  0.88228926  0.18499942    -0.32400
C328        C  0.56767118  0.90708474  0.16294963    -0.09900
C329        C  0.57071521  0.93545703  0.18165534    -0.28700
N330        N  0.59140457  0.94107149  0.31025713    -0.45300
C331        C  0.59466158  0.91587195  0.33169844    -0.04600
C332        C  0.59307757  0.88775030  0.31307146    -0.22000
H333        H  0.58433362  0.85257266  0.24942356     0.19800
H334        H  0.58090669  0.97105430  0.24556256     0.18600
H335        H  0.56809607  0.95915604  0.17169964     0.14900
H336        H  0.59449862  0.86406222  0.32327450     0.14800
H337        H  0.57108141  0.85834285  0.17892698     0.32900
H338        H  0.59132380  0.96479857  0.31731048     0.35700
C339        C  0.51136523  0.98295540  0.00398296     0.21300
C340        C  0.50704356  0.99762577  0.97142611    -0.38600
C341        C  0.49307400  0.02594382  0.96914293     0.20300
C342        C  0.48371963  0.03849085  0.99692869     0.22900
C343        C  0.48789699  0.02370935  0.02952524    -0.39100
C344        C  0.50232896  0.99561926  0.03199703     0.21700
N345        N  0.52519093  0.95663301  0.01318879    -0.32400
C346        C  0.52525671  0.95250704  0.04749472    -0.09900
C347        C  0.51111098  0.97642901  0.06009931    -0.28700
N348        N  0.47165941  0.06607800  0.98817856    -0.45300
C349        C  0.47348275  0.07130197  0.95453148    -0.04600
C350        C  0.48675428  0.04658294  0.94191756    -0.22000
H351        H  0.51454521  0.98806330  0.94968073     0.19800
H352        H  0.48104239  0.03374840  0.05154199     0.18600
H353        H  0.50768813  0.97946318  0.08626324     0.14900
H354        H  0.49174948  0.04414422  0.91652213     0.14800
H355        H  0.53462813  0.94291607  0.99721788     0.32900
H356        H  0.46270000  0.08020303  0.00428227     0.35700
C357        C  0.58766336  0.79034963  0.51985625     0.21300
C358        C  0.59300148  0.77031136  0.54868000    -0.38600
C359        C  0.57948698  0.74146274  0.54493196     0.20300
C360        C  0.56193490  0.73317053  0.51485188     0.22900
C361        C  0.55667271  0.75317844  0.48585669    -0.39100
C362        C  0.57031953  0.78203387  0.48952191     0.21700
N363        N  0.59784755  0.81911976  0.51710718    -0.32400
C364        C  0.58712642  0.82917674  0.48469631    -0.09900
C365        C  0.56986627  0.80669241  0.46661014    -0.28700
N366        N  0.55096613  0.70491830  0.51843990    -0.45300
C367        C  0.56151786  0.69511348  0.55118512    -0.04600
C368        C  0.57959222  0.71736998  0.56828165    -0.22000
H369        H  0.60650846  0.77683986  0.57242792     0.19800
H370        H  0.54287170  0.74683998  0.46229844     0.18600
H371        H  0.55848152  0.80825430  0.44036401     0.14900
H372        H  0.59110477  0.71645439  0.59447745     0.14800
H373        H  0.61140999  0.83111155  0.53604011     0.32900
H374        H  0.53651420  0.69369451  0.50006350     0.35700
C375        C  0.48492357  0.51113776  0.46346330     0.21300
C376        C  0.50323799  0.53583846  0.46492527    -0.38600
C377        C  0.50833039  0.55314812  0.49612812     0.20300
C378        C  0.49629498  0.54606041  0.52369540     0.22900
C379        C  0.47817880  0.52128383  0.52230784    -0.39100
C380        C  0.47295276  0.50419117  0.49112832     0.21700
N381        N  0.47678454  0.49106891  0.43694966    -0.32400
C382        C  0.45968771  0.47102896  0.44799055    -0.09900
C383        C  0.45670689  0.47865533  0.48163671    -0.28700
N384        N  0.50400209  0.56618442  0.55018121    -0.45300
C385        C  0.52107848  0.58651702  0.53959192    -0.04600
C386        C  0.52429256  0.57905304  0.50588447    -0.22000
H387        H  0.51263993  0.54130827  0.44331776     0.19800
H388        H  0.46877426  0.51579116  0.54390594     0.18600
H389        H  0.44456806  0.46691099  0.49727021     0.14900
H390        H  0.53660905  0.59088703  0.49056251     0.14800
H391        H  0.48323304  0.49041797  0.41336831     0.32900
H392        H  0.49734488  0.56641827  0.57361511     0.35700
C393        C  0.41189666  0.31391180  0.45189735     0.21300
C394        C  0.39855392  0.28498510  0.44771137    -0.38600
C395        C  0.40497169  0.26412160  0.47556925     0.20300
C396        C  0.42315924  0.27160125  0.50545040     0.22900
C397        C  0.43647118  0.30059254  0.50969617    -0.39100
C398        C  0.43012610  0.32142125  0.48169788     0.21700
N399        N  0.41005762  0.33715049  0.42859430    -0.32400
C400        C  0.42732382  0.35970269  0.44339892    -0.09900
C401        C  0.44010179  0.35076212  0.47675903    -0.28700
N402        N  0.42617862  0.24744593  0.52776815    -0.45300
C403        C  0.40990273  0.22446085  0.51183778    -0.04600
C404        C  0.39630381  0.23393587  0.47927266    -0.22000
H405        H  0.38456304  0.27895914  0.42420524     0.19800
H406        H  0.45097580  0.30629345  0.53281962     0.18600
H407        H  0.45529664  0.36342746  0.49454360     0.14900
H408        H  0.38222277  0.22045467  0.46072671     0.14800
H409        H  0.39770249  0.33741895  0.40391006     0.32900
H410        H  0.43878878  0.24647210  0.55208894     0.35700
C411        C  0.08504447  0.29511472  0.01656899     0.21300
C412        C  0.08246154  0.28006770  0.04745414    -0.38600
C413        C  0.07828847  0.24748836  0.04496308     0.20300
C414        C  0.07660522  0.23106338  0.01409179     0.22900
C415        C  0.07916367  0.24613660  0.98307101    -0.39100
C416        C  0.08349826  0.27879863  0.98558106     0.21700
N417        N  0.08924743  0.32590098  0.01224230    -0.32400
C418        C  0.09037514  0.32930341  0.97823859    -0.09900
C419        C  0.08691647  0.30046301  0.96071999    -0.28700
N420        N  0.07266930  0.20020948  0.01885664    -0.45300
C421        C  0.07198897  0.19691530  0.05316116    -0.04600
C422        C  0.07536181  0.22609872  0.07010232    -0.22000
H423        H  0.08375522  0.29277773  0.07171815     0.19800
H424        H  0.07796208  0.23339270  0.95884508     0.18600
H425        H  0.08687513  0.29600104  0.93350809     0.14900
H426        H  0.07536830  0.23130215  0.09713378     0.14800
H427        H  0.09115167  0.34353163  0.03122853     0.32900
H428        H  0.07100043  0.18260126  0.99991283     0.35700
C429        C  0.94216424  0.82176442  0.98253722     0.21300
C430        C  0.94831603  0.80033683  0.01003269    -0.38600
C431        C  0.93181278  0.77383168  0.00784471     0.20300
C432        C  0.91076282  0.76903920  0.98041151     0.22900
C433        C  0.90455756  0.79052360  0.95300529    -0.39100
C434        C  0.92110853  0.81694971  0.95516003     0.21700
N435        N  0.95571885  0.84778117  0.97739854    -0.32400
C436        C  0.94334803  0.85943911  0.94629883    -0.09900
C437        C  0.92151153  0.84093610  0.93189336    -0.28700
N438        N  0.89910898  0.74113859  0.98336923    -0.45300
C439        C  0.91295356  0.72803006  0.01279913    -0.04600
C440        C  0.93335352  0.74780429  0.02890767    -0.22000
H441        H  0.96514449  0.80360414  0.03106280     0.19800
H442        H  0.88851911  0.78650259  0.93109543     0.18600
H443        H  0.90803570  0.84413166  0.90729631     0.14900
H444        H  0.94796356  0.74319256  0.05215982     0.14800
H445        H  0.97298146  0.85621038  0.99336624     0.32900
H446        H  0.88333339  0.73116331  0.96584336     0.35700
C447        C  0.99280312  0.55555538  0.99546753     0.21300
C448        C  0.01907419  0.55277213  0.99156325    -0.38600
C449        C  0.02561230  0.52422388  0.97748677     0.20300
C450        C  0.00740817  0.50018473  0.96822271     0.22900
C451        C  0.98106055  0.50303503  0.97191394    -0.39100
C452        C  0.97448518  0.53168739  0.98585644     0.21700
N453        N  0.98186399  0.58005726  0.00894419    -0.32400
C454        C  0.95639083  0.57179087  0.00790857    -0.09900
C455        C  0.95097773  0.54183149  0.99354251    -0.28700
N456        N  0.01882233  0.47505290  0.95660889    -0.45300
C457        C  0.04442071  0.48324272  0.95840909    -0.04600
C458        C  0.04938932  0.51378483  0.97109542    -0.22000
H459        H  0.03343694  0.57134724  0.99926478     0.19800
H460        H  0.96682787  0.48421873  0.96483812     0.18600
H461        H  0.93247554  0.52906767  0.98971868     0.14900
H462        H  0.06800423  0.52634758  0.97576084     0.14800
H463        H  0.99121951  0.60100926  0.01856876     0.32900
H464        H  0.00984073  0.45354897  0.94832523     0.35700
C465        C  0.40610470  0.27127184  0.98568580     0.21300
C466        C  0.39899047  0.24949111  0.95848656    -0.38600
C467        C  0.41567344  0.22349375  0.95937594     0.20300
C468        C  0.43767864  0.21929036  0.98544318     0.22900
C469        C  0.44477773  0.24107079  0.01273044    -0.39100
C470        C  0.42811245  0.26716627  0.01181325     0.21700
N471        N  0.39448761  0.29892496  0.98946310    -0.32400
C472        C  0.40925717  0.31256360  0.01813480    -0.09900
C473        C  0.43023949  0.29336723  0.03299472    -0.28700
N474        N  0.45078718  0.19319500  0.97952497    -0.45300
C475        C  0.43711819  0.18092585  0.94926077    -0.04600
C476        C  0.41505543  0.19915958  0.93606833    -0.22000
H477        H  0.38211070  0.25295215  0.93765146     0.19800
H478        H  0.46230104  0.23829210  0.03273045     0.18600
H479        H  0.44566145  0.29857349  0.05529421     0.14900
H480        H  0.40064129  0.19534047  0.91234562     0.14800
H481        H  0.37808053  0.30840834  0.97290152     0.32900
H482        H  0.46837456  0.18487628  0.99449477     0.35700
C483        C  0.42197815  0.42767508  0.21745197     0.21300
C484        C  0.43459742  0.44305915  0.24798964    -0.38600
C485        C  0.42903457  0.43108364  0.27904322     0.20300
C486        C  0.41209933  0.40591248  0.27958491     0.22900
C487        C  0.39936089  0.39066393  0.24908108    -0.39100
C488        C  0.40508594  0.40242500  0.21807655     0.21700
N489        N  0.42424475  0.43415267  0.18465873    -0.32400
C490        C  0.40867639  0.41284760  0.16436444    -0.09900
C491        C  0.39650098  0.39258655  0.18425117    -0.28700
N492        N  0.41086882  0.39825097  0.31237838    -0.45300
C493        C  0.42729737  0.41855698  0.33308427    -0.04600
C494        C  0.43884224  0.43955448  0.31306354    -0.22000
H495        H  0.44804448  0.46257467  0.24763817     0.19800
H496        H  0.38631375  0.37076248  0.24950703     0.18600
H497        H  0.38308212  0.37337456  0.17514608     0.14900
H498        H  0.45317019  0.45788664  0.32202877     0.14800
H499        H  0.43568092  0.45189768  0.17658528     0.32900
H500        H  0.39950136  0.38020210  0.31992213     0.35700
C501        C  0.27419069  0.43775742  0.01247962     0.21300
C502        C  0.24987629  0.44286425  0.02236697    -0.38600
C503        C  0.22740518  0.43777524  0.99629513     0.20300
C504        C  0.22908488  0.42807933  0.96304561     0.22900
C505        C  0.25336804  0.42312008  0.95312043    -0.39100
C506        C  0.27581422  0.42844181  0.97908542     0.21700
N507        N  0.29831023  0.43914164  0.03292257    -0.32400
C508        C  0.31537380  0.43060187  0.01239918    -0.09900
C509        C  0.30210419  0.42402879  0.97856408    -0.28700
N510        N  0.20494466  0.42368602  0.94345700    -0.45300
C511        C  0.18772726  0.43084927  0.96423819    -0.04600
C512        C  0.20096320  0.43978606  0.99742016    -0.22000
H513        H  0.24854665  0.44971804  0.04858303     0.19800
H514        H  0.25467329  0.41511220  0.92727172     0.18600
H515        H  0.31044005  0.41552719  0.95702765     0.14900
H516        H  0.19240982  0.44619606  0.01952870     0.14800
H517        H  0.30279121  0.44431720  0.05951069     0.32900
H518        H  0.20044637  0.41597752  0.91761939     0.35700
C519        C  0.57445152  0.75619016  0.99372191     0.21300
C520        C  0.56856842  0.78813523  0.98785312    -0.38600
C521        C  0.56336580  0.80507813  0.01648108     0.20300
C522        C  0.56390427  0.79123683  0.04846562     0.22900
C523        C  0.56970770  0.75921904  0.05434361    -0.39100
C524        C  0.57504976  0.74227680  0.02572970     0.21700
N525        N  0.58039593  0.73520811  0.97079611    -0.32400
C526        C  0.58487232  0.70771135  0.98826290    -0.09900
C527        C  0.58176329  0.71114056  0.02265720    -0.28700
N528        N  0.55953682  0.81274305  0.07185461    -0.45300
C529        C  0.55647861  0.84067191  0.05481703    -0.04600
C530        C  0.55842048  0.83662310  0.02000659    -0.22000
H531        H  0.56845166  0.79909924  0.96295861     0.19800
H532        H  0.57044926  0.74844257  0.07948117     0.18600
H533        H  0.58399233  0.69327192  0.04259801     0.14900
H534        H  0.55761957  0.85450937  0.00027783     0.14800
H535        H  0.58134147  0.73933277  0.94482905     0.32900
H536        H  0.55906949  0.80851175  0.09793220     0.35700
C537        C  0.57105974  0.64135327  0.77463984     0.21300
C538        C  0.56564338  0.66145246  0.74589600    -0.38600
C539        C  0.56014620  0.64664078  0.71326962     0.20300
C540        C  0.55985995  0.61427926  0.70947067     0.22900
C541        C  0.56515490  0.59409415  0.73830051    -0.39100
C542        C  0.57082647  0.60893420  0.77102942     0.21700
N543        N  0.57767153  0.64974460  0.80828239    -0.32400
C544        C  0.58172632  0.62252285  0.82633879    -0.09900
C545        C  0.57758815  0.59649926  0.80405226    -0.28700
N546        N  0.55534185  0.60621867  0.67560232    -0.45300
C547        C  0.55300306  0.63368699  0.65763844    -0.04600
C548        C  0.55564104  0.65936936  0.68045827    -0.22000
H549        H  0.56624689  0.68679970  0.74870561     0.19800
H550        H  0.56536070  0.56876523  0.73543646     0.18600
H551        H  0.57950712  0.57189704  0.81104898     0.14900
H552        H  0.55487010  0.68412928  0.67410519     0.14800
H553        H  0.57948368  0.67261235  0.81833998     0.32900
H554        H  0.55501860  0.58336113  0.66557555     0.35700
C555        C  0.72989236  0.61084734  0.96909977     0.21300
C556        C  0.75369272  0.61485551  0.95758296    -0.38600
C557        C  0.77663764  0.61347194  0.98335623     0.20300
C558        C  0.77596985  0.60868750  0.01807492     0.22900
C559        C  0.75211453  0.60464299  0.02965292    -0.39100
C560        C  0.72908310  0.60582242  0.00374272     0.21700
N561        N  0.70542961  0.61245847  0.94979287    -0.32400
C562        C  0.68876541  0.60851238  0.97213226    -0.09900
C563        C  0.70277782  0.60407461  0.00607774    -0.28700
N564        N  0.80050201  0.60933209  0.03747330    -0.45300
C565        C  0.81680720  0.61440786  0.01484008    -0.04600
C566        C  0.80266250  0.61711219  0.98087303    -0.22000
H567        H  0.75427777  0.61915200  0.93055375     0.19800
H568        H  0.75151910  0.60125690  0.05683574     0.18600
H569        H  0.69481712  0.60112705  0.02941204     0.14900
H570        H  0.81034470  0.62187460  0.95764832     0.14800
H571        H  0.70036521  0.61684756  0.92311739     0.32900
H572        H  0.80579991  0.60700622  0.06446578     0.35700
C573        C  0.49330142  0.48520091  0.00633748     0.21300
C574        C  0.51945798  0.48733385  0.00158052    -0.38600
C575        C  0.52610813  0.51517514  0.98619112     0.20300
C576        C  0.50814516  0.53918058  0.97672512     0.22900
C577        C  0.48204479  0.53711717  0.98161372    -0.39100
C578        C  0.47530996  0.50912785  0.99658223     0.21700
N579        N  0.48185830  0.46082305  0.01939222    -0.32400
C580        C  0.45635871  0.46919192  0.01764069    -0.09900
C581        C  0.45154634  0.49921994  0.00372037    -0.28700
N582        N  0.51944849  0.56343095  0.96334024    -0.45300
C583        C  0.54479873  0.55486301  0.96431877    -0.04600
C584        C  0.54968912  0.52481978  0.97816959    -0.22000
H585        H  0.53352777  0.46861188  0.00907136     0.19800
H586        H  0.46796857  0.55582631  0.97407053     0.18600
H587        H  0.43308266  0.51188767  0.99904275     0.14900
H588        H  0.56817008  0.51219141  0.98273074     0.14800
H589        H  0.49073502  0.43961448  0.02844316     0.32900
H590        H  0.51061592  0.58479356  0.95477057     0.35700
C591        C  0.05811506  0.40744225  0.70301528     0.21300
C592        C  0.05857112  0.38990083  0.73330119    -0.38600
C593        C  0.06538509  0.40668307  0.76462615     0.20300
C594        C  0.07114200  0.43856437  0.76576407     0.22900
C595        C  0.07048344  0.45616399  0.73540609    -0.39100
C596        C  0.06376684  0.43932337  0.70403555     0.21700
N597        N  0.05382541  0.39655227  0.67019912    -0.32400
C598        C  0.05678729  0.42166470  0.65006811    -0.09900
C599        C  0.06280085  0.44882879  0.67027493    -0.28700
N600        N  0.07877800  0.44848280  0.79883675    -0.45300
C601        C  0.07814588  0.42260353  0.81872727    -0.04600
C602        C  0.06960383  0.39620333  0.79837425    -0.22000
H603        H  0.05476133  0.36482625  0.73257398     0.19800
H604        H  0.07559515  0.48090597  0.73618538     0.18600
H605        H  0.06700363  0.47209367  0.66160809     0.14900
H606        H  0.06779263  0.37230743  0.80706922     0.14800
H607        H  0.04942087  0.37336786  0.66215229     0.32900
H608        H  0.08497076  0.47113340  0.80727895     0.35700
C609        C  0.07254949  0.32312408  0.50919274     0.21300
C610        C  0.06862448  0.30341804  0.47975556    -0.38600
C611        C  0.08136875  0.27419385  0.48430057     0.20300
C612        C  0.09678152  0.26534834  0.51577080     0.22900
C613        C  0.10066959  0.28502403  0.54513641    -0.39100
C614        C  0.08794804  0.31417728  0.54056375     0.21700
N615        N  0.06179155  0.35150869  0.51208946    -0.32400
C616        C  0.07022898  0.36065550  0.54570803    -0.09900
C617        C  0.08680257  0.33793082  0.56410142    -0.28700
N618        N  0.10614510  0.23613744  0.51372420    -0.45300
C619        C  0.09662939  0.22622102  0.48074098    -0.04600
C620        C  0.08113096  0.24932394  0.46151792    -0.22000
H621        H  0.05627011  0.31014752  0.45530052     0.19800
H622        H  0.11238818  0.27793937  0.56988975     0.18600
H623        H  0.09648385  0.33830788  0.59120894     0.14900
H624        H  0.07068388  0.24785387  0.43476487     0.14800
H625        H  0.04872346  0.36317923  0.49265106     0.32900
H626        H  0.11793264  0.22351037  0.53371404     0.35700
C627        C  0.91668410  0.64732558  0.21166717     0.21300
C628        C  0.91985718  0.66662042  0.24125197    -0.38600
C629        C  0.92581739  0.65100342  0.27318829     0.20300
C630        C  0.92829249  0.61867904  0.27555699     0.22900
C631        C  0.92507718  0.59932141  0.24588678    -0.39100
C632        C  0.91929642  0.61495019  0.21385181     0.21700
N633        N  0.91187689  0.65660327  0.17839648    -0.32400
C634        C  0.91171636  0.63002115  0.15922059    -0.09900
C635        C  0.91610567  0.60347636  0.18031463    -0.28700
N636        N  0.93422495  0.60972345  0.30901306    -0.45300
C637        C  0.93556791  0.63656667  0.32823769    -0.04600
C638        C  0.93046219  0.66279975  0.30651095    -0.22000
H639        H  0.91811778  0.69195855  0.23952398     0.19800
H640        H  0.92728566  0.57403845  0.24762266     0.18600
H641        H  0.91729278  0.57923286  0.17224277     0.14900
H642        H  0.93039393  0.68736759  0.31376695     0.14800
H643        H  0.90948913  0.67967339  0.16931417     0.32900
H644        H  0.93677018  0.58659967  0.31795625     0.35700
C645        C  0.98736818  0.54055183  0.45825627     0.21300
C646        C  0.99342816  0.50836342  0.45846467    -0.38600
C647        C  0.00973094  0.49727749  0.48893486     0.20300
C648        C  0.01917016  0.51675689  0.51701982     0.22900
C649        C  0.01308473  0.54889491  0.51683659    -0.39100
C650        C  0.99679982  0.55995288  0.48639470     0.21700
N651        N  0.97241079  0.55686052  0.43239964    -0.32400
C652        C  0.97226965  0.58697742  0.44409862    -0.09900
C653        C  0.98726777  0.58966453  0.47783159    -0.28700
N654        N  0.03338385  0.50035893  0.54334091    -0.45300
C655        C  0.03291273  0.47005942  0.53214697    -0.04600
C656        C  0.01852192  0.46732536  0.49810891    -0.22000
H657        H  0.98587835  0.49305211  0.43661246     0.19800
H658        H  0.02029428  0.56410519  0.53890408     0.18600
H659        H  0.99122205  0.61062162  0.49379737     0.14900
H660        H  0.01402157  0.44609353  0.48272174     0.14800
H661        H  0.96277438  0.54782323  0.40843069     0.32900
H662        H  0.04249788  0.50932714  0.56758933     0.35700
C663        C  0.90891472  0.78841181  0.47735937     0.21300
C664        C  0.90348723  0.77026186  0.44687849    -0.38600
C665        C  0.91656812  0.74139279  0.44833287     0.20300
C666        C  0.93383666  0.73137318  0.47775911     0.22900
C667        C  0.93929119  0.74955382  0.50834871    -0.39100
C668        C  0.92606546  0.77841804  0.50700090     0.21700
N669        N  0.89992677  0.81734077  0.48199034    -0.32400
C670        C  0.91151547  0.82592837  0.51474071    -0.09900
C671        C  0.92774554  0.80218336  0.53137618    -0.28700
N672        N  0.94414920  0.70332932  0.47204726    -0.45300
C673        C  0.93332602  0.69533630  0.43865821    -0.04600
C674        C  0.91593623  0.71866519  0.42319402    -0.22000
H675        H  0.89033169  0.77823717  0.42357564     0.19800
H676        H  0.95304516  0.74198130  0.53130818     0.18600
H677        H  0.93995617  0.80279711  0.55719558     0.14900
H678        H  0.90426498  0.71920639  0.39708011     0.14800
H679        H  0.88734930  0.83081995  0.46362279     0.32900
H680        H  0.95817731  0.69096817  0.48969563     0.35700
loop_ 
_geom_bond_atom_site_label_1 
_geom_bond_atom_site_label_2 
_geom_bond_distance 
_geom_bond_site_symmetry_2 
_ccdc_geom_bond_type 
C1            C2   1.404       .  A
C1            C6   1.407       .  A
C1          C637   1.489       .  S
C2            C3   1.404       .  A
C2            H7   1.079       .  S
C3            C4   1.404       .  A
C3          C673   1.488       .  S
C4            C5   1.407       .  A
C4            H8   1.081       .  S
C5            C6   1.408       .  A
C5          C652   1.487       .  S
C6            H9   1.080       .  S
C10          C11   1.401       .  A
C10          C15   1.401       .  A
C10         C598   1.479       .  S
C11          C12   1.405       .  A
C11          H16   1.081       .  S
C12          C13   1.407       .  A
C12         C616   1.486       .  S
C13          C14   1.407       .  A
C13          H17   1.082       .  S
C14          C15   1.404       .  A
C14         C655   1.483       .  S
C15          H18   1.082       .  S
O19          C22   1.264       .  A
O19         Cd24   2.466       .  S
C20         C544   1.470       .  S
C20          O29   1.267       .  A
C20          O25   1.265       .  A
O21          C27   1.264       .  A
O21         Cd24   2.513       .  S
C22         C526   1.471       .  S
C22          O30   1.264       .  A
C23         C583   1.469       .  S
C23          O28   1.267       .  A
C23          O26   1.262       .  A
Cd24         O31   2.478       .  S
Cd24         O30   2.480       .  S
Cd24         O29   2.477       .  S
Cd24         O25   2.453       .  S
Cd24         O28   2.489       .  S
Cd24         O26   2.445       .  S
C27         C562   1.476       .  S
C27          O31   1.262       .  A
O32          C35   1.265       .  A
O32         Cd37   2.469       .  S
C33         C472   1.468       .  S
C33          O42   1.263       .  A
C33          O38   1.263       .  A
O34          C40   1.265       .  A
O34         Cd37   2.468       .  S
C35         C490   1.468       .  S
C35          O43   1.265       .  A
C36         C580   1.471       .  S
C36          O41   1.265       .  A
C36          O39   1.262       .  A
Cd37         O44   2.475       .  S
Cd37         O43   2.455       .  S
Cd37         O42   2.475       .  S
Cd37         O38   2.469       .  S
Cd37         O41   2.484       .  S
Cd37         O39   2.474       .  S
C40         C508   1.471       .  S
C40          O44   1.265       .  A
O45          C48   1.264       .  A
O45         Cd50   2.462       .  S
C46         C634   1.464       .  S
C46          O55   1.266       .  A
C46          O51   1.263       .  A
O47          C53   1.266       .  A
O47         Cd50   2.463       .  S
C48         C439   1.470       .  S
C48          O56   1.265       .  A
C49         C454   1.470       .  S
C49          O54   1.264       .  A
C49          O52   1.262       .  A
Cd50         O57   2.455       .  S
Cd50         O56   2.481       .  S
Cd50         O55   2.475       .  S
Cd50         O51   2.430       .  S
Cd50         O54   2.488       .  S
Cd50         O52   2.469       .  S
C53         C565   1.468       .  S
C53          O57   1.263       .  A
O58          C61   1.264       .  A
O58         Cd63   2.463       .  S
C59         C601   1.467       .  S
C59          O68   1.266       .  A
C59          O64   1.264       .  A
O60          C66   1.266       .  A
O60         Cd63   2.475       .  S
C61         C418   1.470       .  S
C61          O69   1.265       .  A
C62         C511   1.471       .  S
C62          O67   1.264       .  A
C62          O65   1.263       .  A
Cd63         O70   2.451       .  S
Cd63         O69   2.468       .  S
Cd63         O68   2.482       .  S
Cd63         O64   2.439       .  S
Cd63         O67   2.490       .  S
Cd63         O65   2.466       .  S
C66         C457   1.468       .  S
C66          O70   1.263       .  A
C71          C72   1.403       .  A
C71          C76   1.404       .  A
C71         C493   1.483       .  S
C72          C73   1.401       .  A
C72          H77   1.082       .  S
C73          C74   1.404       .  A
C73         C382   1.477       .  S
C74          C75   1.402       .  A
C74          H78   1.082       .  S
C75          C76   1.404       .  A
C75         C400   1.481       .  S
C76          H79   1.081       .  S
C80          C81   1.401       .  A
C80          C85   1.406       .  A
C80         C547   1.488       .  S
C81          C82   1.405       .  A
C81          H86   1.081       .  S
C82          C83   1.408       .  A
C82         C385   1.484       .  S
C83          C84   1.408       .  A
C83          H87   1.081       .  S
C84          C85   1.408       .  A
C84         C367   1.491       .  S
C85          H88   1.080       .  S
C89          C90   1.406       .  A
C89          C94   1.406       .  A
C89         C328   1.489       .  S
C90          C91   1.405       .  A
C90          H95   1.079       .  S
C91          C92   1.405       .  A
C91         C529   1.487       .  S
C92          C93   1.405       .  A
C92          H96   1.082       .  S
C93          C94   1.404       .  A
C93         C346   1.483       .  S
C94          H97   1.080       .  S
C98          C99   1.405       .  A
C98         C103   1.402       .  A
C98         C310   1.488       .  S
C99         C100   1.410       .  A
C99         H104   1.080       .  S
C100        C101   1.408       .  A
C100        C349   1.488       .  S
C101        C102   1.402       .  A
C101        H105   1.081       .  S
C102        C103   1.401       .  A
C102        C475   1.479       .  S
C103        H106   1.081       .  S
O107        C110   1.262       .  A
O107       Cd112   2.474       .  S
C108        C331   1.463       .  S
C108        O117   1.267       .  A
C108        O113   1.265       .  A
O109        C115   1.265       .  A
O109       Cd112   2.500       .  S
C110        C364   1.471       .  S
C110        O118   1.265       .  A
C111        C274   1.476       .  S
C111        O116   1.265       .  A
C111        O114   1.263       .  A
Cd112       O119   2.472       .  S
Cd112       O118   2.476       .  S
Cd112       O117   2.462       .  S
Cd112       O113   2.422       .  S
Cd112       O116   2.503       .  S
Cd112       O114   2.478       .  S
C115        C292   1.473       .  S
C115        O119   1.262       .  A
O120        C123   1.266       .  A
O120       Cd125   2.444       .  S
C121        C403   1.463       .  S
C121        O130   1.263       .  A
C121        O126   1.262       .  A
O122        C128   1.265       .  A
O122       Cd125   2.461       .  S
C123        C313   1.467       .  S
C123        O131   1.266       .  A
C124        C259   1.467       .  S
C124        O129   1.265       .  A
C124        O127   1.263       .  A
Cd125       O132   2.470       .  S
Cd125       O131   2.459       .  S
Cd125       O130   2.462       .  S
Cd125       O126   2.450       .  S
Cd125       O129   2.476       .  S
Cd125       O127   2.459       .  S
C128        C295   1.468       .  S
C128        O132   1.262       .  A
O133        C136   1.264       .  A
O133       Cd138   2.438       .  S
C134        C670   1.464       .  S
C134        O143   1.264       .  A
C134        O139   1.264       .  A
O135        C141   1.263       .  A
O135       Cd138   2.475       .  S
C136        C220   1.468       .  S
C136        O144   1.267       .  A
C137        C238   1.468       .  S
C137        O142   1.264       .  A
C137        O140   1.261       .  A
Cd138       O145   2.472       .  S
Cd138       O144   2.478       .  S
Cd138       O143   2.444       .  S
Cd138       O139   2.462       .  S
Cd138       O142   2.490       .  S
Cd138       O140   2.460       .  S
C141        C277   1.471       .  S
C141        O145   1.264       .  A
O146        C149   1.265       .  A
O146       Cd151   2.441       .  S
C147        C619   1.471       .  S
C147        O156   1.265       .  A
C147        O152   1.264       .  A
O148        C154   1.263       .  A
O148       Cd151   2.489       .  S
C149        C205   1.467       .  S
C149        O157   1.266       .  A
C150        C256   1.464       .  S
C150        O155   1.263       .  A
C150        O153   1.263       .  A
Cd151       O158   2.444       .  S
Cd151       O157   2.476       .  S
Cd151       O156   2.471       .  S
Cd151       O152   2.477       .  S
Cd151       O155   2.464       .  S
Cd151       O153   2.454       .  S
C154        C241   1.466       .  S
C154        O158   1.262       .  A
C159        C160   1.406       .  A
C159        C164   1.403       .  A
C159        C202   1.489       .  S
C160        C161   1.406       .  A
C160        H165   1.079       .  S
C161        C162   1.404       .  A
C161        C421   1.489       .  S
C162        C163   1.405       .  A
C162        H166   1.081       .  S
C163        C164   1.405       .  A
C163        C187   1.480       .  S
C164        H167   1.080       .  S
C168        C169   1.402       .  A
C168        C173   1.401       .  A
C168        C223   1.479       .  S
C169        C170   1.405       .  A
C169        H174   1.082       .  S
C170        C171   1.407       .  A
C170        C184   1.481       .  S
C171        C172   1.403       .  A
C171        H175   1.082       .  S
C172        C173   1.403       .  A
C172        C436   1.480       .  S
C173        H176   1.082       .  S
C177        C182   1.383   1_665  A
C177        C178   1.402   1_566  A
C177        N183   1.341       .  A
C178        C179   1.401   1_655  A
C178        H189   1.082       .  S
C179        C188   1.375       .  A
C179        C180   1.384       .  A
C180        C181   1.402   1_554  A
C180        N186   1.342       .  A
C181        C182   1.401       .  A
C181        H190   1.082       .  S
C182        C185   1.375   1_545  A
N183        C184   1.357       .  A
N183        H193   1.044   1_556  S
C184        C185   1.398   1_655  A
C185        H191   1.082       .  S
N186        C187   1.357       .  A
N186        H194   1.044   1_554  S
C187        C188   1.398       .  A
C188        H192   1.082       .  S
C195        C200   1.382       .  A
C195        C196   1.406       .  A
C195        N201   1.345       .  A
C196        C197   1.405       .  A
C196        H207   1.082       .  S
C197        C206   1.381       .  A
C197        C198   1.385       .  A
C198        C199   1.399       .  A
C198        N204   1.340       .  A
C199        C200   1.398       .  A
C199        H208   1.082       .  S
C200        C203   1.372       .  A
N201        C202   1.361       .  A
N201        H211   1.043       .  S
C202        C203   1.398       .  A
C203        H209   1.081       .  S
N204        C205   1.353       .  A
N204        H212   1.045       .  S
C205        C206   1.396       .  A
C206        H210   1.082       .  S
C213        C218   1.385       .  A
C213        C214   1.403       .  A
C213        N219   1.344       .  A
C214        C215   1.402       .  A
C214        H225   1.082       .  S
C215        C224   1.377       .  A
C215        C216   1.384       .  A
C216        C217   1.401       .  A
C216        N222   1.341       .  A
C217        C218   1.401       .  A
C217        H226   1.082       .  S
C218        C221   1.375       .  A
N219        C220   1.355       .  A
N219        H229   1.045       .  S
C220        C221   1.394       .  A
C221        H227   1.083       .  S
N222        C223   1.356       .  A
N222        H230   1.044       .  S
C223        C224   1.397       .  A
C224        H228   1.082       .  S
C231        C236   1.385   1_545  A
C231        C232   1.400       .  A
C231        N237   1.343       .  A
C232        C233   1.400   1_655  A
C232        H243   1.082       .  S
C233        C242   1.372       .  A
C233        C234   1.385       .  A
C234        C235   1.403   1_545  A
C234        N240   1.345       .  A
C235        C236   1.404   1_455  A
C235        H244   1.082       .  S
C236        C239   1.377       .  A
N237        C238   1.354   1_545  A
N237        H247   1.045       .  S
C238        C239   1.395       .  A
C239        H245   1.082       .  S
N240        C241   1.356       .  A
N240        H248   1.045       .  S
C241        C242   1.392       .  A
C242        H246   1.082       .  S
C249        C254   1.385       .  A
C249        C250   1.402       .  A
C249        N255   1.343       .  A
C250        C251   1.402       .  A
C250        H261   1.082       .  S
C251        C260   1.376       .  A
C251        C252   1.385       .  A
C252        C253   1.401       .  A
C252        N258   1.343       .  A
C253        C254   1.400       .  A
C253        H262   1.082       .  S
C254        C257   1.375       .  A
N255        C256   1.355       .  A
N255        H265   1.045       .  S
C256        C257   1.393       .  A
C257        H263   1.082       .  S
N258        C259   1.354       .  A
N258        H266   1.045       .  S
C259        C260   1.394       .  A
C260        H264   1.082       .  S
C267        C272   1.385       .  A
C267        C268   1.405       .  A
C267        N273   1.346       .  A
C268        C269   1.405       .  A
C268        H279   1.082       .  S
C269        C278   1.379       .  A
C269        C270   1.385       .  A
C270        C271   1.403       .  A
C270        N276   1.344       .  A
C271        C272   1.403       .  A
C271        H280   1.082       .  S
C272        C275   1.378       .  A
N273        C274   1.357       .  A
N273        H283   1.045       .  S
C274        C275   1.396       .  A
C275        H281   1.082       .  S
N276        C277   1.355       .  A
N276        H284   1.045       .  S
C277        C278   1.395       .  A
C278        H282   1.082       .  S
C285        C290   1.385       .  A
C285        C286   1.402       .  A
C285        N291   1.343   1_545  A
C286        C287   1.400       .  A
C286        H297   1.082   1_545  S
C287        C296   1.375       .  A
C287        C288   1.384       .  A
C288        C289   1.406       .  A
C288        N294   1.345       .  A
C289        C290   1.405       .  A
C289        H298   1.082       .  S
C290        C293   1.381       .  A
N291        C292   1.355       .  A
N291        H301   1.045       .  S
C292        C293   1.396   1_565  A
C293        H299   1.082       .  S
N294        C295   1.357       .  A
N294        H302   1.045       .  S
C295        C296   1.392       .  A
C296        H300   1.082       .  S
C303        C308   1.382       .  A
C303        C304   1.401       .  A
C303        N309   1.339       .  A
C304        C305   1.399       .  A
C304        H315   1.082       .  S
C305        C314   1.375       .  A
C305        C306   1.384       .  A
C306        C307   1.405       .  A
C306        N312   1.344       .  A
C307        C308   1.405       .  A
C307        H316   1.082       .  S
C308        C311   1.380       .  A
N309        C310   1.358       .  A
N309        H319   1.043       .  S
C310        C311   1.401       .  A
C311        H317   1.082       .  S
N312        C313   1.356       .  A
N312        H320   1.045       .  S
C313        C314   1.393       .  A
C314        H318   1.083       .  S
C321        C326   1.382       .  A
C321        C322   1.400       .  A
C321        N327   1.341       .  A
C322        C323   1.399       .  A
C322        H333   1.082       .  S
C323        C332   1.373       .  A
C323        C324   1.385       .  A
C324        C325   1.403       .  A
C324        N330   1.344       .  A
C325        C326   1.403       .  A
C325        H334   1.082       .  S
C326        C329   1.377       .  A
N327        C328   1.359       .  A
N327        H337   1.044       .  S
C328        C329   1.401       .  A
C329        H335   1.081       .  S
N330        C331   1.355       .  A
N330        H338   1.045       .  S
C331        C332   1.392       .  A
C332        H336   1.083       .  S
C339        C344   1.383       .  A
C339        C340   1.401   1_554  A
C339        N345   1.342       .  A
C340        C341   1.401   1_565  A
C340        H351   1.082       .  S
C341        C350   1.374       .  A
C341        C342   1.382       .  A
C342        C343   1.405   1_556  A
C342        N348   1.344       .  A
C343        C344   1.404   1_545  A
C343        H352   1.082       .  S
C344        C347   1.378       .  A
N345        C346   1.356       .  A
N345        H355   1.044   1_554  S
C346        C347   1.399       .  A
C347        H353   1.082       .  S
N348        C349   1.360       .  A
N348        H356   1.043   1_556  S
C349        C350   1.398       .  A
C350        H354   1.081       .  S
C357        C362   1.385       .  A
C357        C358   1.402       .  A
C357        N363   1.343       .  A
C358        C359   1.402       .  A
C358        H369   1.082       .  S
C359        C368   1.376       .  A
C359        C360   1.382       .  A
C360        C361   1.406       .  A
C360        N366   1.346       .  A
C361        C362   1.405       .  A
C361        H370   1.082       .  S
C362        C365   1.381       .  A
N363        C364   1.354       .  A
N363        H373   1.045       .  S
C364        C365   1.397       .  A
C365        H371   1.082       .  S
N366        C367   1.360       .  A
N366        H374   1.043       .  S
C367        C368   1.400       .  A
C368        H372   1.082       .  S
C375        C380   1.383       .  A
C375        C376   1.405       .  A
C375        N381   1.343       .  A
C376        C377   1.404       .  A
C376        H387   1.082       .  S
C377        C386   1.380       .  A
C377        C378   1.383       .  A
C378        C379   1.401       .  A
C378        N384   1.340       .  A
C379        C380   1.399       .  A
C379        H388   1.082       .  S
C380        C383   1.374       .  A
N381        C382   1.358       .  A
N381        H391   1.043       .  S
C382        C383   1.395       .  A
C383        H389   1.082       .  S
N384        C385   1.357       .  A
N384        H392   1.043       .  S
C385        C386   1.399       .  A
C386        H390   1.082       .  S
C393        C398   1.384       .  A
C393        C394   1.401       .  A
C393        N399   1.339       .  A
C394        C395   1.399       .  A
C394        H405   1.083       .  S
C395        C404   1.375       .  A
C395        C396   1.385       .  A
C396        C397   1.403       .  A
C396        N402   1.341       .  A
C397        C398   1.402       .  A
C397        H406   1.082       .  S
C398        C401   1.377       .  A
N399        C400   1.356       .  A
N399        H409   1.049       .  S
C400        C401   1.399       .  A
C401        H407   1.082       .  S
N402        C403   1.354       .  A
N402        H410   1.045       .  S
C403        C404   1.393       .  A
C404        H408   1.082       .  S
C411        C416   1.385   1_554  A
C411        C412   1.401       .  A
C411        N417   1.343       .  A
C412        C413   1.401       .  A
C412        H423   1.082       .  S
C413        C422   1.374       .  A
C413        C414   1.382       .  A
C414        C415   1.406   1_554  A
C414        N420   1.346       .  A
C415        C416   1.406       .  A
C415        H424   1.082       .  S
C416        C419   1.380       .  A
N417        C418   1.354   1_554  A
N417        H427   1.045       .  S
C418        C419   1.396       .  A
C419        H425   1.082       .  S
N420        C421   1.360       .  A
N420        H428   1.043   1_554  S
C421        C422   1.399       .  A
C422        H426   1.082       .  S
C429        C434   1.384       .  A
C429        C430   1.403   1_556  A
C429        N435   1.344       .  A
C430        C431   1.403       .  A
C430        H441   1.082       .  S
C431        C440   1.377       .  A
C431        C432   1.385   1_554  A
C432        C433   1.402       .  A
C432        N438   1.344       .  A
C433        C434   1.402       .  A
C433        H442   1.082       .  S
C434        C437   1.374       .  A
N435        C436   1.357       .  A
N435        H445   1.045       .  S
C436        C437   1.397       .  A
C437        H443   1.082       .  S
N438        C439   1.355   1_556  A
N438        H446   1.045       .  S
C439        C440   1.394       .  A
C440        H444   1.082       .  S
C447        C452   1.385       .  A
C447        C448   1.403   1_655  A
C447        N453   1.342   1_556  A
C448        C449   1.401       .  A
C448        H459   1.082       .  S
C449        C458   1.377       .  A
C449        C450   1.385       .  A
C450        C451   1.404   1_455  A
C450        N456   1.343       .  A
C451        C452   1.403       .  A
C451        H460   1.082       .  S
C452        C455   1.379       .  A
N453        C454   1.355       .  A
N453        H463   1.045       .  S
C454        C455   1.395   1_554  A
C455        H461   1.082       .  S
N456        C457   1.356       .  A
N456        H464   1.045       .  S
C457        C458   1.393       .  A
C458        H462   1.082       .  S
C465        C470   1.385   1_556  A
C465        C466   1.401       .  A
C465        N471   1.343       .  A
C466        C467   1.401       .  A
C466        H477   1.082       .  S
C467        C476   1.373       .  A
C467        C468   1.384       .  A
C468        C469   1.404   1_556  A
C468        N474   1.345       .  A
C469        C470   1.404       .  A
C469        H478   1.082       .  S
C470        C473   1.377       .  A
N471        C472   1.355   1_556  A
N471        H481   1.045       .  S
C472        C473   1.395       .  A
C473        H479   1.082       .  S
N474        C475   1.357       .  A
N474        H482   1.044       .  S
C475        C476   1.396       .  A
C476        H480   1.082       .  S
C483        C488   1.385       .  A
C483        C484   1.403       .  A
C483        N489   1.343       .  A
C484        C485   1.402       .  A
C484        H495   1.082       .  S
C485        C494   1.376       .  A
C485        C486   1.383       .  A
C486        C487   1.401       .  A
C486        N492   1.341       .  A
C487        C488   1.400       .  A
C487        H496   1.082       .  S
C488        C491   1.376       .  A
N489        C490   1.355       .  A
N489        H499   1.045       .  S
C490        C491   1.393       .  A
C491        H497   1.082       .  S
N492        C493   1.357       .  A
N492        H500   1.044       .  S
C493        C494   1.399       .  A
C494        H498   1.082       .  S
C501        C506   1.385   1_554  A
C501        C502   1.405       .  A
C501        N507   1.344       .  A
C502        C503   1.404   1_554  A
C502        H513   1.082       .  S
C503        C512   1.380       .  A
C503        C504   1.385       .  A
C504        C505   1.403       .  A
C504        N510   1.342       .  A
C505        C506   1.402       .  A
C505        H514   1.082       .  S
C506        C509   1.378       .  A
N507        C508   1.356       .  A
N507        H517   1.045       .  S
C508        C509   1.395   1_554  A
C509        H515   1.082       .  S
N510        C511   1.355       .  A
N510        H518   1.045       .  S
C511        C512   1.396       .  A
C512        H516   1.082   1_556  S
C519        C524   1.384   1_556  A
C519        C520   1.403       .  A
C519        N525   1.343       .  A
C520        C521   1.402   1_556  A
C520        H531   1.082       .  S
C521        C530   1.378       .  A
C521        C522   1.383       .  A
C522        C523   1.405       .  A
C522        N528   1.343       .  A
C523        C524   1.404       .  A
C523        H532   1.082       .  S
C524        C527   1.381       .  A
N525        C526   1.355       .  A
N525        H535   1.044       .  S
C526        C527   1.396   1_556  A
C527        H533   1.082       .  S
N528        C529   1.359       .  A
N528        H536   1.044       .  S
C529        C530   1.398       .  A
C530        H534   1.082       .  S
C537        C542   1.385       .  A
C537        C538   1.401       .  A
C537        N543   1.342       .  A
C538        C539   1.401       .  A
C538        H549   1.082       .  S
C539        C548   1.375       .  A
C539        C540   1.383       .  A
C540        C541   1.406       .  A
C540        N546   1.345       .  A
C541        C542   1.405       .  A
C541        H550   1.082       .  S
C542        C545   1.381       .  A
N543        C544   1.354       .  A
N543        H553   1.044       .  S
C544        C545   1.396       .  A
C545        H551   1.082       .  S
N546        C547   1.360       .  A
N546        H554   1.045       .  S
C547        C548   1.398       .  A
C548        H552   1.082       .  S
C555        C560   1.385   1_556  A
C555        C556   1.402       .  A
C555        N561   1.342       .  A
C556        C557   1.400       .  A
C556        H567   1.082       .  S
C557        C566   1.377       .  A
C557        C558   1.384   1_556  A
C558        C559   1.406       .  A
C558        N564   1.345       .  A
C559        C560   1.406       .  A
C559        H568   1.082       .  S
C560        C563   1.383       .  A
N561        C562   1.355       .  A
N561        H571   1.045       .  S
C562        C563   1.398   1_556  A
C563        H569   1.082       .  S
N564        C565   1.357       .  A
N564        H572   1.045       .  S
C565        C566   1.393   1_554  A
C566        H570   1.082       .  S
C573        C578   1.385   1_554  A
C573        C574   1.404       .  A
C573        N579   1.344       .  A
C574        C575   1.403   1_554  A
C574        H585   1.082       .  S
C575        C584   1.380       .  A
C575        C576   1.385       .  A
C576        C577   1.403       .  A
C576        N582   1.342       .  A
C577        C578   1.402       .  A
C577        H586   1.082       .  S
C578        C581   1.378   1_556  A
N579        C580   1.356       .  A
N579        H589   1.045       .  S
C580        C581   1.394       .  A
C581        H587   1.082   1_554  S
N582        C583   1.356       .  A
N582        H590   1.045       .  S
C583        C584   1.394       .  A
C584        H588   1.082       .  S
C591        C596   1.384       .  A
C591        C592   1.401       .  A
C591        N597   1.342       .  A
C592        C593   1.400       .  A
C592        H603   1.082       .  S
C593        C602   1.374       .  A
C593        C594   1.385       .  A
C594        C595   1.403       .  A
C594        N600   1.344       .  A
C595        C596   1.403       .  A
C595        H604   1.082       .  S
C596        C599   1.377       .  A
N597        C598   1.356       .  A
N597        H607   1.044       .  S
C598        C599   1.396       .  A
C599        H605   1.082       .  S
N600        C601   1.355       .  A
N600        H608   1.045       .  S
C601        C602   1.393       .  A
C602        H606   1.082       .  S
C609        C614   1.383       .  A
C609        C610   1.405       .  A
C609        N615   1.344       .  A
C610        C611   1.404       .  A
C610        H621   1.082       .  S
C611        C620   1.380       .  A
C611        C612   1.385       .  A
C612        C613   1.402       .  A
C612        N618   1.342       .  A
C613        C614   1.401       .  A
C613        H622   1.082       .  S
C614        C617   1.374       .  A
N615        C616   1.359       .  A
N615        H625   1.042       .  S
C616        C617   1.399       .  A
C617        H623   1.082       .  S
N618        C619   1.354       .  A
N618        H626   1.045       .  S
C619        C620   1.396       .  A
C620        H624   1.082       .  S
C627        C632   1.385       .  A
C627        C628   1.400       .  A
C627        N633   1.340       .  A
C628        C629   1.400       .  A
C628        H639   1.083       .  S
C629        C638   1.373       .  A
C629        C630   1.382       .  A
C630        C631   1.404       .  A
C630        N636   1.344       .  A
C631        C632   1.403       .  A
C631        H640   1.082       .  S
C632        C635   1.379       .  A
N633        C634   1.354       .  A
N633        H643   1.044       .  S
C634        C635   1.395       .  A
C635        H641   1.082       .  S
N636        C637   1.359       .  A
N636        H644   1.045       .  S
C637        C638   1.400       .  A
C638        H642   1.081       .  S
C645        C650   1.383       .  A
C645        C646   1.405       .  A
C645        N651   1.344       .  A
C646        C647   1.404   1_655  A
C646        H657   1.082       .  S
C647        C656   1.379       .  A
C647        C648   1.383       .  A
C648        C649   1.403       .  A
C648        N654   1.342       .  A
C649        C650   1.402   1_455  A
C649        H658   1.082       .  S
C650        C653   1.376       .  A
N651        C652   1.359       .  A
N651        H661   1.044       .  S
C652        C653   1.399       .  A
C653        H659   1.082       .  S
N654        C655   1.358       .  A
N654        H662   1.044       .  S
C655        C656   1.398       .  A
C656        H660   1.082       .  S
C663        C668   1.385       .  A
C663        C664   1.400       .  A
C663        N669   1.341       .  A
C664        C665   1.400       .  A
C664        H675   1.082       .  S
C665        C674   1.373       .  A
C665        C666   1.382       .  A
C666        C667   1.404       .  A
C666        N672   1.344       .  A
C667        C668   1.403       .  A
C667        H676   1.082       .  S
C668        C671   1.378       .  A
N669        C670   1.353       .  A
N669        H679   1.045       .  S
C670        C671   1.395       .  A
C671        H677   1.082       .  S
N672        C673   1.359       .  A
N672        H680   1.044       .  S
C673        C674   1.399       .  A
C674        H678   1.081       .  S
