geometry optimzed in LAMMPS
_audit_creation_date              2020-11-30 
_audit_creation_method            'lammps2cif' 
_symmetry_space_group_name_H-M    'P1' 
_symmetry_Int_Tables_number       1 
_symmetry_cell_setting            triclinic 
loop_ 
_symmetry_equiv_pos_as_xyz 
  x,y,z 
_cell_length_a                    76.88279303 
_cell_length_b                    59.5740966950036 
_cell_length_c                    41.72480100092678 
_cell_angle_alpha                 89.82875431756102 
_cell_angle_beta                  89.96354491879644 
_cell_angle_gamma                 90.05974215602511 
loop_ 
_atom_site_label 
_atom_site_type_symbol 
_atom_site_fract_x 
_atom_site_fract_y 
_atom_site_fract_z 
_atom_site_charge 
C1          C  0.72398107  0.88603262  0.08167485     0.03600
C2          C  0.73789605  0.88095546  0.06120969    -0.12600
C3          C  0.75358818  0.87263871  0.07368736     0.01100
C4          C  0.75522948  0.86942987  0.10688620    -0.11100
C5          C  0.74137055  0.87437155  0.12747897     0.03500
C6          C  0.72571219  0.88242137  0.11468965    -0.10500
H7          H  0.73646733  0.88338798  0.03559176     0.09100
H8          H  0.76726753  0.86290882  0.11669308     0.06700
H9          H  0.71487122  0.88601656  0.13048513     0.06500
C10         C  0.83598683  0.80082248  0.91920219     0.03600
C11         C  0.83445120  0.80350268  0.88589806    -0.12600
C12         C  0.84261952  0.78848756  0.86500084     0.01100
C13         C  0.85227696  0.77060901  0.87759378    -0.11100
C14         C  0.85394603  0.76772364  0.91075684     0.03500
C15         C  0.84591067  0.78298776  0.93156834    -0.10500
H16         H  0.82648999  0.81692338  0.87625082     0.09100
H17         H  0.85805110  0.75843942  0.86151439     0.06700
H18         H  0.84681704  0.78047530  0.95725283     0.06500
C19         C  0.81335042  0.76023648  0.57833921     0.03600
C20         C  0.82336895  0.74154072  0.56966913    -0.12600
C21         C  0.83410843  0.73108050  0.59221801     0.01100
C22         C  0.83434023  0.73858991  0.62385320    -0.11100
C23         C  0.82367927  0.75644124  0.63329235     0.03500
C24         C  0.81341020  0.76749204  0.61037478    -0.10500
H25         H  0.82317881  0.73550164  0.54518718     0.09100
H26         H  0.84284737  0.73055694  0.64113306     0.06700
H27         H  0.80551530  0.78170116  0.61745372     0.06500
C28         C  0.73622086  0.83680196  0.41704535     0.03600
C29         C  0.73955736  0.83507436  0.38406743    -0.12600
C30         C  0.72966166  0.84745209  0.36208971     0.01100
C31         C  0.71675305  0.86205579  0.37318340    -0.11100
C32         C  0.71370863  0.86438603  0.40605470     0.03500
C33         C  0.72327518  0.85153007  0.42793762    -0.10500
H34         H  0.74992918  0.82430739  0.37557203     0.09100
H35         H  0.70943366  0.87215658  0.35625915     0.06700
H36         H  0.72096159  0.85340620  0.45342145     0.06500
N37         N  0.10547429  0.49682364  0.01571380    -0.26900
N38         N  0.09036404  0.48781273  0.02353719    -0.34700
C39         C  0.09281773  0.46603676  0.03089198     0.01500
C40         C  0.11029290  0.46126883  0.02684874     0.07500
C41         C  0.11794033  0.48119156  0.01757304    -0.05600
H42         H  0.08270211  0.45460101  0.03862263     0.08200
H43         H  0.13162025  0.48424753  0.01325423     0.09400
Cu44       Cu  0.06762845  0.50630388  0.02289407     0.44200
Cu45       Cu  0.10872262  0.53008051  0.00487271     0.42000
Cu46       Cu  0.07245358  0.56738668  0.00656360     0.43900
N47         N  0.04728387  0.52842493  0.01549399    -0.34200
N48         N  0.04893872  0.55019569  0.00970412    -0.28500
C49         C  0.03307953  0.55891833  0.00434744    -0.04600
C50         C  0.02094798  0.54185142  0.00683655     0.07600
C51         C  0.03037573  0.52278723  0.01395708     0.01400
H52         H  0.03063554  0.57632068  0.99842018     0.09100
H53         H  0.02539792  0.50593393  0.01711720     0.08100
N54         N  0.09783361  0.57822211  0.99890672    -0.35700
N55         N  0.11095100  0.56395461  0.99774581    -0.27900
C56         C  0.12566959  0.57504361  0.99106640    -0.03100
C57         C  0.12168859  0.59743272  0.98745447     0.05500
C58         C  0.10395717  0.59903806  0.99300016     0.03600
H59         H  0.13834967  0.56730870  0.98919177     0.08700
H60         H  0.09607830  0.61406211  0.99205357     0.07500
N61         N  0.91851578  0.58686338  0.96370943    -0.26900
N62         N  0.93388912  0.59631661  0.96792303    -0.34700
C63         C  0.93249480  0.61855106  0.96308688     0.01500
C64         C  0.91546287  0.62317523  0.95495588     0.07500
C65         C  0.90690826  0.60277241  0.95579244    -0.05600
H66         H  0.94305327  0.63044742  0.96547233     0.08200
H67         H  0.89319695  0.59980223  0.95177115     0.09400
Cu68       Cu  0.95580357  0.57837077  0.98030624     0.44200
Cu69       Cu  0.91395478  0.55313475  0.97141414     0.42000
Cu70       Cu  0.95029424  0.51879753  0.99770860     0.43900
N71         N  0.97596258  0.55696543  0.99160573    -0.34200
N72         N  0.97410760  0.53533690  0.99800041    -0.28500
C73         C  0.98984966  0.52654991  0.00437111    -0.04600
C74         C  0.00209452  0.54351127  0.00186185     0.07600
C75         C  0.99285164  0.56252000  0.99369085     0.01400
H76         H  0.99217214  0.50913932  0.01042108     0.09100
H77         H  0.99797252  0.57920184  0.98957850     0.08100
N78         N  0.92484774  0.50722084  0.99452405    -0.35700
N79         N  0.91175821  0.51984219  0.98465241    -0.27900
C80         C  0.89704918  0.50769922  0.98529131    -0.03100
C81         C  0.90095780  0.48643848  0.99639702     0.05500
C82         C  0.91875676  0.48660726  0.00167161     0.03600
H83         H  0.88438475  0.51396409  0.97838390     0.08700
H84         H  0.92670293  0.47275649  0.00986052     0.07500
C85         C  0.31865379  0.80494398  0.44559107     0.03600
C86         C  0.31844819  0.80177445  0.41237837    -0.12600
C87         C  0.32932504  0.81453076  0.39252449     0.01100
C88         C  0.34124549  0.82955679  0.40626679    -0.11100
C89         C  0.34185069  0.83238975  0.43964982     0.03500
C90         C  0.33027326  0.82035313  0.45910785    -0.10500
H91         H  0.30967948  0.78957824  0.40191642     0.09100
H92         H  0.34990752  0.83917274  0.39098083     0.06700
H93         H  0.33008495  0.82320243  0.48474622     0.06500
C94         C  0.23870156  0.72195148  0.59466238     0.03600
C95         C  0.22405377  0.71066503  0.58261711    -0.12600
C96         C  0.21145645  0.70225535  0.60372923     0.01100
C97         C  0.21289757  0.70633855  0.63656250    -0.11100
C98         C  0.22731308  0.71785689  0.64878761     0.03500
C99         C  0.24047393  0.72487863  0.62783110    -0.10500
H100        H  0.22252604  0.70828180  0.55703390     0.09100
H101        H  0.20283059  0.70028621  0.65263211     0.06700
H102        H  0.25191720  0.73319977  0.63727241     0.06500
C103        C  0.32187038  0.80298787  0.09848467     0.03600
C104        C  0.33097935  0.82208934  0.08810839    -0.12600
C105        C  0.34047798  0.83501983  0.10986607     0.01100
C106        C  0.34075284  0.82893391  0.14228618    -0.11100
C107        C  0.33162177  0.80998290  0.15316871     0.03500
C108        C  0.32212291  0.79709234  0.13113177    -0.10500
H109        H  0.33042155  0.82714756  0.06314957     0.09100
H110        H  0.34784062  0.83926616  0.15918041     0.06700
H111        H  0.31482725  0.78261334  0.13939986     0.06500
C112        C  0.23966681  0.73245251  0.94122595     0.03600
C113        C  0.24072553  0.73654220  0.90817616    -0.12600
C114        C  0.22809247  0.72788942  0.88743385     0.01100
C115        C  0.21450754  0.71480630  0.89987317    -0.11100
C116        C  0.21303573  0.71117425  0.93291986     0.03500
C117        C  0.22561274  0.72007357  0.95357112    -0.10500
H118        H  0.25146786  0.74626543  0.89857343     0.09100
H119        H  0.20512091  0.70726918  0.88376315     0.06700
H120        H  0.22456775  0.71718319  0.97916209     0.06500
N121        N  0.10893661  0.56219284  0.52606777    -0.26900
N122        N  0.09493389  0.57231495  0.53734372    -0.34700
C123        C  0.09935789  0.59303027  0.54728866     0.01500
C124        C  0.11702703  0.59591415  0.54210765     0.07500
C125        C  0.12259463  0.57610095  0.52843427    -0.05600
H126        H  0.09030982  0.60508509  0.55704755     0.08200
H127        H  0.13572873  0.57191019  0.52131351     0.09400
Cu128      Cu  0.07059427  0.55728092  0.53809663     0.44200
Cu129      Cu  0.10941494  0.52970507  0.50911602     0.42000
Cu130      Cu  0.06983987  0.49839239  0.51432357     0.43900
N131        N  0.04808462  0.53867118  0.53133636    -0.34200
N132        N  0.04789161  0.51738821  0.52240959    -0.28500
C133        C  0.03143670  0.51115480  0.51627042    -0.04600
C134        C  0.02076494  0.52935519  0.52168843     0.07600
C135        C  0.03169393  0.54648318  0.53138861     0.01400
H136        H  0.02766934  0.49489801  0.50708700     0.09100
H137        H  0.02815168  0.56370884  0.53625999     0.08100
N138        N  0.09300482  0.48460105  0.49930359    -0.35700
N139        N  0.10748071  0.49636693  0.49637104    -0.27900
C140        C  0.11997717  0.48316578  0.48420690    -0.03100
C141        C  0.11294046  0.46212683  0.47885453     0.05500
C142        C  0.09588267  0.46353548  0.48924809     0.03600
H143        H  0.13316792  0.48854739  0.47936164     0.08700
H144        H  0.08623559  0.45030153  0.48935389     0.07500
N145        N  0.91982490  0.57990101  0.48241904    -0.26900
N146        N  0.93281401  0.58542433  0.50153330    -0.34700
C147        C  0.92889288  0.60457632  0.51675902     0.01500
C148        C  0.91268390  0.61156004  0.50652681     0.07500
C149        C  0.90721220  0.59536050  0.48505676    -0.05600
H150        H  0.93705788  0.61251060  0.53455108     0.08200
H151        H  0.89470284  0.59436168  0.47327842     0.09400
Cu152      Cu  0.95471526  0.56607494  0.50751471     0.44200
Cu153      Cu  0.91912243  0.55041989  0.45657503     0.42000
Cu154      Cu  0.95489615  0.51160681  0.47011507     0.43900
N155        N  0.97576911  0.54481473  0.50823260    -0.34200
N156        N  0.97599415  0.52484434  0.49453952    -0.28500
C157        C  0.99192584  0.51587732  0.49807443    -0.04600
C158        C  0.00213309  0.53105715  0.51465654     0.07600
C159        C  0.99148776  0.54917608  0.52072073     0.01400
H160        H  0.99591479  0.49987673  0.48833901     0.09100
H161        H  0.99499146  0.56466469  0.53255740     0.08100
N162        N  0.93189185  0.50310070  0.44728778    -0.35700
N163        N  0.91922526  0.51750768  0.44125038    -0.27900
C164        C  0.90572120  0.50646093  0.42832649    -0.03100
C165        C  0.91008259  0.48404550  0.42620016     0.05500
C166        C  0.92668049  0.48243278  0.43866757     0.03600
H167        H  0.89320553  0.51389782  0.42307942     0.08700
H168        H  0.93408828  0.46724030  0.44258032     0.07500
C169        C  0.78705606  0.34421750  0.03829639     0.03600
C170        C  0.79996499  0.35732302  0.02341637    -0.12600
C171        C  0.81281406  0.36773165  0.04190588     0.01100
C172        C  0.81339349  0.36397249  0.07503298    -0.11100
C173        C  0.80086697  0.35040611  0.09004563     0.03500
C174        C  0.78751527  0.34097986  0.07159322    -0.10500
H175        H  0.79959354  0.36014669  0.99775224     0.09100
H176        H  0.82336250  0.37211332  0.08924093     0.06700
H177        H  0.77715406  0.33166667  0.08317533     0.06500
C178        C  0.70124888  0.27349152  0.88816872     0.03600
C179        C  0.68963414  0.25621973  0.89635213    -0.12600
C180        C  0.67922810  0.24624218  0.87276022     0.01100
C181        C  0.68020070  0.25398796  0.84105773    -0.11100
C182        C  0.69174350  0.27127941  0.83270440     0.03500
C183        C  0.70194730  0.28134795  0.85643543    -0.10500
H184        H  0.68919676  0.24995760  0.92076075     0.09100
H185        H  0.67237417  0.24606322  0.82267230     0.06700
H186        H  0.71088167  0.29470389  0.84999120     0.06500
C187        C  0.79579745  0.34351943  0.38487664     0.03600
C188        C  0.80936063  0.35717948  0.39610194    -0.12600
C189        C  0.82127130  0.36667656  0.37472740     0.01100
C190        C  0.81982672  0.36236356  0.34191582    -0.11100
C191        C  0.80679428  0.34802784  0.33026884     0.03500
C192        C  0.79449469  0.33918586  0.35184528    -0.10500
H193        H  0.81051093  0.36075193  0.42147470     0.09100
H194        H  0.82879894  0.37038750  0.32541679     0.06700
H195        H  0.78386130  0.32901682  0.34295575     0.06500
C196        C  0.70720862  0.28784339  0.54319438     0.03600
C197        C  0.69797465  0.26890030  0.53300579    -0.12600
C198        C  0.68734615  0.25713575  0.55444242     0.01100
C199        C  0.68571969  0.26460994  0.58610886    -0.11100
C200        C  0.69447383  0.28402474  0.59637052     0.03500
C201        C  0.70517738  0.29563967  0.57465510    -0.10500
H202        H  0.69954258  0.26284026  0.50869628     0.09100
H203        H  0.67786984  0.25504879  0.60288395     0.06700
H204        H  0.71224921  0.31039501  0.58242484     0.06500
N205        N  0.60776726  0.07338805  0.94547728    -0.26900
N206        N  0.59213483  0.08240987  0.94337420    -0.34700
C207        C  0.59368403  0.10410449  0.93487197     0.01500
C208        C  0.61118919  0.10899852  0.93202288     0.07500
C209        C  0.61974900  0.08906270  0.93841770    -0.05600
H210        H  0.58292989  0.11567700  0.93239534     0.08200
H211        H  0.63365942  0.08635184  0.93896774     0.09400
Cu212      Cu  0.56988627  0.06510995  0.95581448     0.44200
Cu213      Cu  0.61180053  0.04084695  0.96088128     0.42000
Cu214      Cu  0.57420449  0.00768377  0.98607042     0.43900
N215        N  0.54949068  0.04600202  0.97291972    -0.34200
N216        N  0.55078395  0.02521629  0.98390846    -0.28500
C217        C  0.53488227  0.01817514  0.99314640    -0.04600
C218        C  0.52316325  0.03541427  0.98767142     0.07600
C219        C  0.53288460  0.05274218  0.97491984     0.01400
H220        H  0.53208736  0.00177221  0.00309256     0.09100
H221        H  0.52826267  0.06908573  0.96746417     0.08100
N222        N  0.59977065  0.99612300  0.98735180    -0.35700
N223        N  0.61323348  0.00852592  0.97868815    -0.27900
C224        C  0.62791193  0.99700445  0.98403080    -0.03100
C225        C  0.62371591  0.97616056  0.99670969     0.05500
C226        C  0.60561995  0.97618059  0.99816076     0.03600
H227        H  0.64080288  0.00367974  0.97978820     0.08700
H228        H  0.59714294  0.96289784  0.00624556     0.07500
N229        N  0.41707573  0.00531115  0.03270585    -0.26900
N230        N  0.43169595  0.99371480  0.03111257    -0.34700
C231        C  0.42844969  0.97228222  0.03932978     0.01500
C232        C  0.41100073  0.97037017  0.04712181     0.07500
C233        C  0.40417161  0.99159819  0.04221720    -0.05600
H234        H  0.43804536  0.95901466  0.03908203     0.08200
H235        H  0.39074877  0.99667050  0.04504221     0.09400
Cu236      Cu  0.45541310  0.00738452  0.01792894     0.44200
Cu237      Cu  0.41499950  0.03889682  0.02033134     0.42000
Cu238      Cu  0.45444138  0.06575565  0.99354838     0.43900
N239        N  0.47736434  0.02539788  0.00496791    -0.34200
N240        N  0.47691600  0.04667696  0.99592466    -0.28500
C241        C  0.49311736  0.05343969  0.98867459    -0.04600
C242        C  0.50430487  0.03558467  0.99344615     0.07600
C243        C  0.49390733  0.01806462  0.00383339     0.01400
H244        H  0.49645464  0.07012194  0.98039808     0.09100
H245        H  0.49799527  0.00119314  0.00980199     0.08100
N246        N  0.43038746  0.08135864  0.99311543    -0.35700
N247        N  0.41597698  0.07157849  0.00336681    -0.27900
C248        C  0.40255503  0.08569256  0.99907256    -0.03100
C249        C  0.40878362  0.10519325  0.98513191     0.05500
C250        C  0.42651696  0.10194829  0.98189555     0.03600
H251        H  0.38914199  0.08173688  0.00458457     0.08700
H252        H  0.43593156  0.11355064  0.97201524     0.07500
C253        C  0.21387672  0.31126304  0.07038800     0.03600
C254        C  0.21423728  0.30245754  0.10165125    -0.12600
C255        C  0.20275288  0.31053006  0.12502267     0.01100
C256        C  0.19087256  0.32743216  0.11689290    -0.11100
C257        C  0.19003125  0.33570241  0.08561531     0.03500
C258        C  0.20146401  0.32757098  0.06229761    -0.10500
H259        H  0.22355152  0.28950215  0.10781491     0.09100
H260        H  0.18229099  0.33430226  0.13500277     0.06700
H261        H  0.20094996  0.33427131  0.03813379     0.06500
C262        C  0.29490761  0.23888810  0.91263183     0.03600
C263        C  0.29406555  0.24236018  0.87935233    -0.12600
C264        C  0.30609157  0.23191937  0.85890988     0.01100
C265        C  0.31874529  0.21762755  0.87199193    -0.11100
C266        C  0.31989648  0.21451505  0.90513674     0.03500
C267        C  0.30811480  0.22532086  0.92542885    -0.10500
H268        H  0.28404507  0.25309388  0.86939925     0.09100
H269        H  0.32775560  0.20894422  0.85635525     0.06700
H270        H  0.30911254  0.22299168  0.95114067     0.06500
C271        C  0.20459604  0.30191080  0.41734913     0.03600
C272        C  0.20681940  0.29741342  0.38459159    -0.12600
C273        C  0.19614832  0.30774976  0.36169520     0.01100
C274        C  0.18362995  0.32333576  0.37165886    -0.11100
C275        C  0.18242636  0.32955544  0.40391164     0.03500
C276        C  0.19249684  0.31823775  0.42680909    -0.10500
H277        H  0.21704697  0.28614187  0.37687371     0.09100
H278        H  0.17553239  0.33168225  0.35401732     0.06700
H279        H  0.19134323  0.32269231  0.45188643     0.06500
C280        C  0.29565320  0.23797701  0.56460130     0.03600
C281        C  0.29421020  0.24003974  0.59800523    -0.12600
C282        C  0.30631197  0.22962755  0.61820267     0.01100
C283        C  0.32024446  0.21773670  0.60487669    -0.11100
C284        C  0.32186904  0.21560775  0.57155048     0.03500
C285        C  0.30936217  0.22540381  0.55150478    -0.10500
H286        H  0.28345991  0.24932506  0.60829525     0.09100
H287        H  0.32959026  0.20962122  0.62052471     0.06700
H288        H  0.31023954  0.22315902  0.52578356     0.06500
N289        N  0.61309909  0.08381476  0.49172417    -0.26900
N290        N  0.59775072  0.09365710  0.49381377    -0.34700
C291        C  0.60013699  0.11578481  0.49858093     0.01500
C292        C  0.61786557  0.11988532  0.50009424     0.07500
C293        C  0.62564381  0.09929066  0.49520294    -0.05600
H294        H  0.58975635  0.12788090  0.50129244     0.08200
H295        H  0.63943957  0.09572290  0.49489615     0.09400
Cu296      Cu  0.57454071  0.07591739  0.49259360     0.44200
Cu297      Cu  0.61649043  0.04980271  0.48514670     0.42000
Cu298      Cu  0.57828967  0.01495633  0.48441240     0.43900
N299        N  0.55380783  0.05372352  0.49595940    -0.34200
N300        N  0.55519324  0.03166749  0.49336957    -0.28500
C301        C  0.53949686  0.02229745  0.49830686    -0.04600
C302        C  0.52770363  0.03926537  0.50431993     0.07600
C303        C  0.53718874  0.05895195  0.50258434     0.01400
H304        H  0.53694013  0.00444001  0.49788973     0.09100
H305        H  0.53245394  0.07583012  0.50637415     0.08100
N306        N  0.60311960  0.00278985  0.47639284    -0.35700
N307        N  0.61710435  0.01567918  0.47703480    -0.27900
C308        C  0.63120250  0.00307463  0.47121033    -0.03100
C309        C  0.62584544  0.98120564  0.46632477     0.05500
C310        C  0.60794867  0.98156452  0.47003953     0.03600
H311        H  0.64438974  0.00941004  0.47030280     0.08700
H312        H  0.59909836  0.96748051  0.46898915     0.07500
N313        N  0.41946495  0.06095878  0.53474297    -0.26900
N314        N  0.43321366  0.07423504  0.53294396    -0.34700
C315        C  0.42790792  0.09574866  0.53469025     0.01500
C316        C  0.40999887  0.09581997  0.53822532     0.07500
C317        C  0.40509733  0.07352296  0.53779160    -0.05600
H318        H  0.43643446  0.11019559  0.53379985     0.08200
H319        H  0.39201748  0.06690417  0.53949984     0.09400
Cu320      Cu  0.45829634  0.06183436  0.52817372     0.44200
Cu321      Cu  0.42051234  0.02641269  0.53238801     0.42000
Cu322      Cu  0.46224739  0.00039740  0.52369357     0.43900
N323        N  0.48150908  0.04469716  0.52151263    -0.34200
N324        N  0.48293499  0.02259016  0.51986924    -0.28500
C325        C  0.49960763  0.01724474  0.51385384    -0.04600
C326        C  0.50909359  0.03690494  0.51160898     0.07600
C327        C  0.49724746  0.05395987  0.51667689     0.01400
H328        H  0.50437162  0.00030624  0.51077444     0.09100
H329        H  0.49977622  0.07182429  0.51624449     0.08100
N330        N  0.43909918  0.98256044  0.52357562    -0.35700
N331        N  0.42377256  0.99229241  0.52674860    -0.27900
C332        C  0.41122213  0.97680411  0.52336489    -0.03100
C333        C  0.41898449  0.95631618  0.51744062     0.05500
C334        C  0.43671305  0.96053289  0.51805155     0.03600
H335        H  0.39742765  0.98038616  0.52371812     0.08700
H336        H  0.44713548  0.94867115  0.51434456     0.07500
C337        C  0.36593724  0.18896715  0.55751163    -0.22000
C338        C  0.36097398  0.16884615  0.54286433     0.09900
C339        C  0.34347595  0.16550095  0.53389984     0.10300
C340        C  0.33108998  0.18190569  0.54156521    -0.16900
C341        C  0.33585347  0.20140145  0.55822868    -0.27400
C342        C  0.35361256  0.20542363  0.56507168     0.18700
C343        C  0.37385279  0.15050842  0.54098704     0.12600
C344        C  0.33783791  0.14435921  0.51712549    -0.11700
H345        H  0.31749328  0.17893711  0.53614146     0.12900
C346        C  0.35997914  0.22674049  0.58051608    -0.22600
H347        H  0.37944124  0.19151440  0.56407388     0.08600
C348        C  0.38674858  0.14970408  0.51698739     0.04900
C349        C  0.39886356  0.13204346  0.51725520    -0.19800
C350        C  0.39827521  0.11530669  0.54103367    -0.12100
C351        C  0.38568535  0.11670096  0.56572084     0.13600
C352        C  0.37350728  0.13411665  0.56506255    -0.22500
C353        C  0.38746236  0.16719769  0.49091287    -0.05600
H354        H  0.40852496  0.13095136  0.49839197     0.15100
C355        C  0.38504149  0.10072882  0.59381517    -0.15800
H356        H  0.36380562  0.13518177  0.58388910     0.09500
H357        H  0.37002346  0.23463189  0.56500167     0.07300
H358        H  0.36584894  0.22278508  0.60417186     0.08500
H359        H  0.34951694  0.23928030  0.58400782     0.07600
H360        H  0.34045784  0.12954657  0.53256964     0.02400
H361        H  0.34512504  0.14259661  0.49429091     0.02900
H362        H  0.32371949  0.14456831  0.51149321     0.06400
H363        H  0.39821482  0.16393233  0.47376394     0.05400
H364        H  0.38955552  0.18402668  0.50159432    -0.00400
H365        H  0.37502752  0.16722091  0.47739102     0.01100
H366        H  0.38559531  0.11043902  0.61647514     0.04800
H367        H  0.39605561  0.08879111  0.59440576     0.06700
H368        H  0.37267941  0.09109038  0.59323033     0.07600
C369        C  0.27259127  0.26990262  0.49803287    -0.22000
C370        C  0.25525847  0.26373085  0.50368637     0.09900
C371        C  0.25124221  0.24919278  0.52943029     0.10300
C372        C  0.26473892  0.24114078  0.54887048    -0.16900
C373        C  0.28208155  0.24760274  0.54356747    -0.27400
C374        C  0.28600806  0.26259543  0.51818548     0.18700
C375        C  0.24154466  0.27346528  0.48302581     0.12600
C376        C  0.23275006  0.24255985  0.53690280    -0.11700
H377        H  0.26175849  0.22966900  0.56834309     0.12900
C378        C  0.30393676  0.27208952  0.51246521    -0.22600
H379        H  0.27560326  0.28112213  0.47826584     0.08600
C380        C  0.23768469  0.29662441  0.48380032     0.04900
C381        C  0.22530135  0.30531308  0.46254183    -0.19800
C382        C  0.21622652  0.29130891  0.44130160    -0.12100
C383        C  0.21923446  0.26785509  0.44224453     0.13600
C384        C  0.23230625  0.25936967  0.46226554    -0.22500
C385        C  0.24642568  0.31216965  0.50727891    -0.05600
H386        H  0.22293896  0.32324546  0.46208804     0.15100
C387        C  0.20853133  0.25122552  0.42351780    -0.15800
H388        H  0.23513017  0.24154237  0.46203530     0.09500
H389        H  0.30329018  0.29071437  0.51272367     0.07300
H390        H  0.30877342  0.26657253  0.48868670     0.08500
H391        H  0.31348817  0.26707600  0.53098520     0.07600
H392        H  0.22715582  0.23286667  0.51673547     0.02400
H393        H  0.22479063  0.25782281  0.54102126     0.02900
H394        H  0.23194487  0.23188814  0.55872976     0.06400
H395        H  0.24119302  0.32950539  0.50561441     0.05400
H396        H  0.26059287  0.31304054  0.50247564    -0.00400
H397        H  0.24423310  0.30599716  0.53209380     0.01100
H398        H  0.21682519  0.24284403  0.40535719     0.04800
H399        H  0.19723701  0.25902440  0.41141783     0.06700
H400        H  0.20322221  0.23831156  0.44011126     0.07600
C401        C  0.31869347  0.24061116  0.77170798    -0.22000
C402        C  0.30312279  0.23509979  0.75618056     0.09900
C403        C  0.28818701  0.23000591  0.77456616     0.10300
C404        C  0.28937451  0.22988340  0.80814127    -0.16900
C405        C  0.30507751  0.23498860  0.82370745    -0.27400
C406        C  0.31975238  0.24127149  0.80518498     0.18700
C407        C  0.30300248  0.23424522  0.72068330     0.12600
C408        C  0.27100460  0.22479653  0.75887518    -0.11700
H409        H  0.27811436  0.22518935  0.82231170     0.12900
C410        C  0.33658370  0.24932419  0.81974453    -0.22600
H411        H  0.33012648  0.24458361  0.75754398     0.08600
C412        C  0.30503324  0.25378283  0.70174566     0.04900
C413        C  0.30569718  0.25180731  0.66825690    -0.19800
C414        C  0.30430242  0.23080786  0.65336190    -0.12100
C415        C  0.30163055  0.21136305  0.67230753     0.13600
C416        C  0.30136831  0.21330972  0.70574323    -0.22500
C417        C  0.30632817  0.27670565  0.71674522    -0.05600
H418        H  0.30760778  0.26666473  0.65359731     0.15100
C419        C  0.29859561  0.18841905  0.65817177    -0.15800
H420        H  0.29983596  0.19833487  0.72032153     0.09500
H421        H  0.33998046  0.26599737  0.80952417     0.07300
H422        H  0.34715677  0.23730227  0.81402681     0.08500
H423        H  0.33586594  0.25142647  0.84607412     0.07600
H424        H  0.27205314  0.20931912  0.74430949     0.02400
H425        H  0.26709169  0.23901039  0.74320059     0.02900
H426        H  0.26055239  0.22208322  0.77686872     0.06400
H427        H  0.30714711  0.29016802  0.69833029     0.05400
H428        H  0.31814864  0.27784567  0.73186389    -0.00400
H429        H  0.29465532  0.27987469  0.73173652     0.01100
H430        H  0.30921264  0.17693244  0.66566252     0.04800
H431        H  0.29791265  0.18852476  0.63166004     0.06700
H432        H  0.28602252  0.18165572  0.66710403     0.07600
C433        C  0.20282204  0.28161938  0.27936976    -0.22000
C434        C  0.20527932  0.30094218  0.26072619     0.09900
C435        C  0.20475760  0.32229974  0.27519531     0.10300
C436        C  0.20228130  0.32377010  0.30830669    -0.16900
C437        C  0.19937063  0.30451312  0.32706874    -0.27400
C438        C  0.19945985  0.28311876  0.31232098     0.18700
C439        C  0.20570994  0.29882256  0.22559127     0.12600
C440        C  0.20583296  0.34359216  0.25558406    -0.11700
H441        H  0.20218181  0.34014740  0.31955539     0.12900
C442        C  0.19503263  0.26171903  0.32988434    -0.22600
H443        H  0.20263589  0.26534113  0.26780432     0.08600
C444        C  0.22112374  0.30186265  0.20780219     0.04900
C445        C  0.22000614  0.30422360  0.17441238    -0.19800
C446        C  0.20387664  0.30284508  0.15867121    -0.12100
C447        C  0.18883423  0.29694269  0.17639497     0.13600
C448        C  0.18988829  0.29554834  0.20975327    -0.22500
C449        C  0.23861864  0.30266650  0.22402787    -0.05600
H450        H  0.23162035  0.30819488  0.16077750     0.15100
C451        C  0.17150548  0.29205991  0.16099487    -0.15800
H452        H  0.17818402  0.29243724  0.22361221     0.09500
H453        H  0.20653928  0.25047719  0.33017659     0.07300
H454        H  0.18419142  0.25308148  0.31736762     0.08500
H455        H  0.19068687  0.26455233  0.35480312     0.07600
H456        H  0.19509085  0.34396496  0.23781874     0.02400
H457        H  0.21841952  0.34456643  0.24272469     0.02900
H458        H  0.20469086  0.35879035  0.27079705     0.06400
H459        H  0.24932895  0.30496301  0.20643867     0.05400
H460        H  0.24086390  0.28665617  0.23706017    -0.00400
H461        H  0.23921602  0.31668244  0.24138660     0.01100
H462        H  0.16686549  0.27526683  0.16887040     0.04800
H463        H  0.17217725  0.29172922  0.13446948     0.06700
H464        H  0.16186408  0.30488537  0.16847451     0.07600
C465        C  0.26124989  0.24893237  0.97775847    -0.22000
C466        C  0.26020754  0.27238080  0.97733612     0.09900
C467        C  0.27009010  0.28479487  0.95500070     0.10300
C468        C  0.28110567  0.27338071  0.93377831    -0.16900
C469        C  0.28226199  0.24985240  0.93423589    -0.27400
C470        C  0.27185649  0.23743808  0.95603501     0.18700
C471        C  0.24831557  0.28346119  0.00011196     0.12600
C472        C  0.26887398  0.31000556  0.95345199    -0.11700
H473        H  0.28901900  0.28285397  0.91699709     0.12900
C474        C  0.27104738  0.21214936  0.95631695    -0.22600
H475        H  0.25338927  0.23951036  0.99470817     0.08600
C476        C  0.23022216  0.28394782  0.99472123     0.04900
C477        C  0.21933374  0.29359569  0.01780583    -0.19800
C478        C  0.22618037  0.30296547  0.04593375    -0.12100
C479        C  0.24444017  0.30348395  0.05047902     0.13600
C480        C  0.25524932  0.29329175  0.02773934    -0.22500
C481        C  0.22244786  0.27432887  0.96460208    -0.05600
H482        H  0.20537070  0.29344579  0.01420141     0.15100
C483        C  0.25302264  0.31516807  0.07833312    -0.15800
H484        H  0.26921245  0.29318563  0.03140945     0.09500
H485        H  0.25729991  0.20665348  0.95398254     0.07300
H486        H  0.27632968  0.20568584  0.97931675     0.08500
H487        H  0.27827429  0.20441206  0.93625153     0.07600
H488        H  0.27305080  0.31735338  0.97661934     0.02400
H489        H  0.25523700  0.31504651  0.94847713     0.02900
H490        H  0.27727439  0.31707535  0.93424411     0.06400
H491        H  0.20810700  0.27650828  0.96392349     0.05400
H492        H  0.22529373  0.25610282  0.96314776    -0.00400
H493        H  0.22806734  0.28294599  0.94334670     0.01100
H494        H  0.25997061  0.30265620  0.09336048     0.04800
H495        H  0.24374343  0.32447539  0.09362933     0.06700
H496        H  0.26258068  0.32760661  0.06912718     0.07600
C497        C  0.38607936  0.14819126  0.93247896    -0.22000
C498        C  0.37406564  0.15716616  0.95420265     0.09900
C499        C  0.37447829  0.15035613  0.98661794     0.10300
C500        C  0.38640345  0.13387056  0.99623803    -0.16900
C501        C  0.39815244  0.12442811  0.97436527    -0.27400
C502        C  0.39827110  0.13203934  0.94220491     0.18700
C503        C  0.36038157  0.17240578  0.94199291     0.12600
C504        C  0.36237983  0.16049704  0.01103466    -0.11700
H505        H  0.38642149  0.12807571  0.02089472     0.12900
C506        C  0.41054113  0.12243981  0.91764628    -0.22600
H507        H  0.38557992  0.15343057  0.90759240     0.08600
C508        C  0.36413836  0.19450041  0.93176304     0.04900
C509        C  0.35062935  0.20797087  0.91986671    -0.19800
C510        C  0.33352407  0.19987248  0.91845110    -0.12100
C511        C  0.32975378  0.17784287  0.92879005     0.13600
C512        C  0.34328761  0.16426442  0.94015170    -0.22500
C513        C  0.38226974  0.20397102  0.93390579    -0.05600
H514        H  0.35336670  0.22491701  0.91175479     0.15100
C515        C  0.31152673  0.16860173  0.92749373    -0.15800
H516        H  0.34055618  0.14719083  0.94769812     0.09500
H517        H  0.40805241  0.12939745  0.89335187     0.07300
H518        H  0.40896814  0.10393436  0.91645207     0.08500
H519        H  0.42414828  0.12665315  0.92402069     0.07600
H520        H  0.34866777  0.15664774  0.00489116     0.02400
H521        H  0.36421286  0.17898396  0.01157177     0.02900
H522        H  0.36489947  0.15383945  0.03548466     0.06400
H523        H  0.38276889  0.22173973  0.92581061     0.05400
H524        H  0.39124674  0.19416772  0.91855354    -0.00400
H525        H  0.38684498  0.20325047  0.95912210     0.01100
H526        H  0.30657410  0.16933718  0.90252230     0.04800
H527        H  0.30292167  0.17861615  0.94327327     0.06700
H528        H  0.31097253  0.15086815  0.93572897     0.07600
C529        C  0.67160168  0.19703201  0.54576240    -0.22000
C530        C  0.65794007  0.19992441  0.52393476     0.09900
C531        C  0.65435770  0.22140933  0.51138522     0.10300
C532        C  0.66451070  0.23969511  0.52122129    -0.16900
C533        C  0.67793481  0.23694397  0.54365342    -0.27400
C534        C  0.68174029  0.21527850  0.55572526     0.18700
C535        C  0.64702528  0.18032007  0.51599206     0.12600
C536        C  0.63959846  0.22507690  0.48824830    -0.11700
H537        H  0.66170336  0.25633490  0.51200467     0.12900
C538        C  0.69647120  0.21071663  0.57867650    -0.22600
H539        H  0.67429190  0.18041992  0.55522572     0.08600
C540        C  0.65109922  0.16602226  0.49024722     0.04900
C541        C  0.64097993  0.14675016  0.48527854    -0.19800
C542        C  0.62703472  0.14133120  0.50570285    -0.12100
C543        C  0.62302045  0.15578040  0.53161901     0.13600
C544        C  0.63293596  0.17528538  0.53601267    -0.22500
C545        C  0.66629140  0.17087958  0.46847334    -0.05600
H546        H  0.64410974  0.13565918  0.46555080     0.15100
C547        C  0.60925806  0.15075265  0.55639737    -0.15800
H548        H  0.63008181  0.18626218  0.55603007     0.09500
H549        H  0.70537811  0.19808198  0.56809227     0.07300
H550        H  0.69117047  0.20396116  0.60151345     0.08500
H551        H  0.70431596  0.22583332  0.58413105     0.07600
H552        H  0.62713525  0.22003336  0.49964365     0.02400
H553        H  0.64165093  0.21489158  0.46635938     0.02900
H554        H  0.63853805  0.24296132  0.48091763     0.06400
H555        H  0.66767498  0.15792396  0.44955512     0.05400
H556        H  0.67850160  0.17122853  0.48265150    -0.00400
H557        H  0.66449941  0.18738201  0.45654559     0.01100
H558        H  0.61520994  0.15107448  0.58064123     0.04800
H559        H  0.60317738  0.13406729  0.55372291     0.06700
H560        H  0.59894835  0.16376652  0.55523687     0.07600
C561        C  0.76332196  0.30683766  0.43033158    -0.22000
C562        C  0.75622312  0.32257764  0.45146124     0.09900
C563        C  0.76227718  0.34487159  0.45115984     0.10300
C564        C  0.77493461  0.35117202  0.42873952    -0.16900
C565        C  0.78231182  0.33543945  0.40762629    -0.27400
C566        C  0.77665855  0.31277916  0.40899370     0.18700
C567        C  0.74336741  0.31488197  0.47530534     0.12600
C568        C  0.75569973  0.36182958  0.47499442    -0.11700
H569        H  0.77921730  0.36850481  0.42788539     0.12900
C570        C  0.78490722  0.29414525  0.38990561    -0.22600
H571        H  0.75888692  0.28956141  0.43142206     0.08600
C572        C  0.72533344  0.31647055  0.46964674     0.04900
C573        C  0.71372599  0.30825269  0.49282188    -0.19800
C574        C  0.71984445  0.29838970  0.52123140    -0.12100
C575        C  0.73793803  0.29673913  0.52674747     0.13600
C576        C  0.74949719  0.30517089  0.50371411    -0.22500
C577        C  0.71840486  0.32624994  0.43886891    -0.05600
H578        H  0.69983483  0.30908049  0.48853933     0.15100
C579        C  0.74510807  0.28520071  0.55611084    -0.15800
H580        H  0.76340587  0.30386344  0.50755523     0.09500
H581        H  0.77531496  0.28733690  0.37257952     0.07300
H582        H  0.78896269  0.28044997  0.40639285     0.08500
H583        H  0.79672995  0.29944742  0.37677924     0.07600
H584        H  0.75855693  0.35595047  0.49971347     0.02400
H585        H  0.74145431  0.36403824  0.47232892     0.02900
H586        H  0.76198591  0.37846724  0.47164166     0.06400
H587        H  0.70396305  0.32601964  0.43823926     0.05400
H588        H  0.72327345  0.31634940  0.41823120    -0.00400
H589        H  0.72275480  0.34391189  0.43618430     0.01100
H590        H  0.75954033  0.28443533  0.55564195     0.04800
H591        H  0.74008666  0.26773880  0.55747090     0.06700
H592        H  0.74124392  0.29445113  0.57800133     0.07600
C593        C  0.65906715  0.18803231  0.87504436    -0.22000
C594        C  0.64542626  0.19131409  0.89669836     0.09900
C595        C  0.64284635  0.21260599  0.91056730     0.10300
C596        C  0.65407111  0.23030370  0.90228709    -0.16900
C597        C  0.66792308  0.22696667  0.88088518    -0.27400
C598        C  0.67059778  0.20542939  0.86746347     0.18700
C599        C  0.63529299  0.17148979  0.90685953     0.12600
C600        C  0.62831040  0.21654208  0.93407848    -0.11700
H601        H  0.65208890  0.24678956  0.91258804     0.12900
C602        C  0.68593667  0.19978971  0.84651058    -0.22600
H603        H  0.66118766  0.17145846  0.86508183     0.08600
C604        C  0.62140106  0.16303826  0.88845890     0.04900
C605        C  0.61337001  0.14288669  0.89784617    -0.19800
C606        C  0.61905596  0.13107043  0.92506974    -0.12100
C607        C  0.63244740  0.14024676  0.94431584     0.13600
C608        C  0.64057326  0.16015300  0.93458605    -0.22500
C609        C  0.61524990  0.17515972  0.85885458    -0.05600
H610        H  0.60296155  0.13598161  0.88338046     0.15100
C611        C  0.63817941  0.13009683  0.97572803    -0.15800
H612        H  0.65115205  0.16693883  0.94877673     0.09500
H613        H  0.68136277  0.19564833  0.82199588     0.07300
H614        H  0.69287343  0.18503730  0.85661174     0.08500
H615        H  0.69553467  0.21354758  0.84507110     0.07600
H616        H  0.63000866  0.20551891  0.95534104     0.02400
H617        H  0.61563823  0.21272195  0.92256429     0.02900
H618        H  0.62801933  0.23422097  0.94243917     0.06400
H619        H  0.60416438  0.16634226  0.84735161     0.05400
H620        H  0.62600293  0.17631341  0.84115728    -0.00400
H621        H  0.61093897  0.19234783  0.86529175     0.01100
H622        H  0.65187701  0.12438177  0.97373580     0.04800
H623        H  0.63000009  0.11582996  0.98361950     0.06700
H624        H  0.63734129  0.14298442  0.99484599     0.07600
C625        C  0.70025698  0.26736375  0.74360731    -0.22000
C626        C  0.69485730  0.28856291  0.73304973     0.09900
C627        C  0.68934877  0.30470511  0.75555965     0.10300
C628        C  0.68886916  0.29891255  0.78825380    -0.16900
C629        C  0.69401815  0.27749105  0.79866956    -0.27400
C630        C  0.70045354  0.26186949  0.77615327     0.18700
C631        C  0.69482541  0.29276317  0.69809636     0.12600
C632        C  0.68412949  0.32794402  0.74511486    -0.11700
H633        H  0.68419115  0.31094860  0.80567125     0.12900
C634        C  0.70812437  0.23955804  0.78563432    -0.22600
H635        H  0.70464494  0.25508507  0.72624514     0.08600
C636        C  0.71049952  0.29372714  0.68053745     0.04900
C637        C  0.70992879  0.29240697  0.64702548    -0.19800
C638        C  0.69402633  0.29040689  0.63069744    -0.12100
C639        C  0.67828711  0.29190199  0.64823089     0.13600
C640        C  0.67890151  0.29258485  0.68179186    -0.22500
C641        C  0.72782862  0.29563864  0.69719088    -0.05600
H642        H  0.72201085  0.29163967  0.63367503     0.15100
C643        C  0.66068458  0.29278917  0.63240019    -0.15800
H644        H  0.66686902  0.29219053  0.69535722     0.09500
H645        H  0.72123862  0.23780076  0.77475414     0.07300
H646        H  0.69968060  0.22575038  0.77687513     0.08500
H647        H  0.70987496  0.23789156  0.81183590     0.07600
H648        H  0.67273194  0.32705205  0.72887459     0.02400
H649        H  0.69513449  0.33608517  0.73232161     0.02900
H650        H  0.68056532  0.33862665  0.76587506     0.06400
H651        H  0.73872023  0.29692185  0.67977726     0.05400
H652        H  0.73018962  0.28068910  0.71247086    -0.00400
H653        H  0.72797034  0.31092239  0.71235574     0.01100
H654        H  0.65303502  0.27767322  0.63912379     0.04800
H655        H  0.66150107  0.29383032  0.60592030     0.06700
H656        H  0.65362549  0.30796763  0.64064841     0.07600
C657        C  0.80168813  0.32525850  0.17411696    -0.22000
C658        C  0.80166332  0.34477888  0.19273373     0.09900
C659        C  0.80182289  0.36601145  0.17769857     0.10300
C660        C  0.80122005  0.36725399  0.14420313    -0.16900
C661        C  0.80099522  0.34776412  0.12536408    -0.27400
C662        C  0.80153468  0.32645390  0.14049668     0.18700
C663        C  0.80231460  0.34277322  0.22799198     0.12600
C664        C  0.80319396  0.38732809  0.19694432    -0.11700
H665        H  0.80107888  0.38355458  0.13258006     0.12900
C666        C  0.80282891  0.30501811  0.12150616    -0.22600
H667        H  0.80203527  0.30905877  0.18599986     0.08600
C668        C  0.78734295  0.34574802  0.24700549     0.04900
C669        C  0.78907871  0.34672512  0.28042521    -0.19800
C670        C  0.80534501  0.34380019  0.29527618    -0.12100
C671        C  0.81999679  0.33841575  0.27605692     0.13600
C672        C  0.81836614  0.33865954  0.24261999    -0.22500
C673        C  0.76958061  0.34779002  0.23201798    -0.05600
H674        H  0.77774185  0.35041561  0.29491510     0.15100
C675        C  0.83739307  0.33174966  0.28978181    -0.15800
H676        H  0.82970822  0.33558818  0.22780024     0.09500
H677        H  0.79081157  0.30218813  0.10746436     0.07300
H678        H  0.80459681  0.29018561  0.13736069     0.08500
H679        H  0.81416746  0.30589836  0.10505399     0.07600
H680        H  0.81534270  0.38706926  0.21131429     0.02400
H681        H  0.79192163  0.38894375  0.21334663     0.02900
H682        H  0.80351221  0.40243768  0.18129515     0.06400
H683        H  0.75924686  0.34973346  0.25041258     0.05400
H684        H  0.76671068  0.33242054  0.21798259    -0.00400
H685        H  0.76903866  0.36254457  0.21580342     0.01100
H686        H  0.84148547  0.31546793  0.27931928     0.04800
H687        H  0.83708844  0.32933673  0.31609204     0.06700
H688        H  0.84727186  0.34468564  0.28368001     0.07600
C689        C  0.74974881  0.33528787  0.97992315    -0.22000
C690        C  0.74791294  0.31190698  0.98129907     0.09900
C691        C  0.75835998  0.29931105  0.00252639     0.10300
C692        C  0.77088739  0.31039803  0.02108964    -0.16900
C693        C  0.77301163  0.33379095  0.01922680    -0.27400
C694        C  0.76186396  0.34648940  0.99917910     0.18700
C695        C  0.73560364  0.30101135  0.95897264     0.12600
C696        C  0.75618714  0.27426958  0.00581928    -0.11700
H697        H  0.77924740  0.30073933  0.03685167     0.12900
C698        C  0.76191548  0.37179820  0.99814975    -0.22600
H699        H  0.74158200  0.34489902  0.96375240     0.08600
C700        C  0.71741017  0.30313193  0.96245934     0.04900
C701        C  0.70643507  0.29385451  0.93909295    -0.19800
C702        C  0.71330001  0.28253888  0.91249709    -0.12100
C703        C  0.73149113  0.27960896  0.90980884     0.13600
C704        C  0.74242316  0.28913766  0.93291856    -0.22500
C705        C  0.70960552  0.31489496  0.99095304    -0.05600
H706        H  0.69245601  0.29561977  0.94135270     0.15100
C707        C  0.73940989  0.26590880  0.88320155    -0.15800
H708        H  0.75640815  0.28749492  0.93056063     0.09500
H709        H  0.74863012  0.37808976  0.00343662     0.07300
H710        H  0.76578687  0.37760841  0.97386426     0.08500
H711        H  0.77073168  0.37947432  0.01599628     0.07600
H712        H  0.75910247  0.26591088  0.98271873     0.02400
H713        H  0.74261135  0.27034347  0.01301887     0.02900
H714        H  0.76505605  0.26717895  0.02424752     0.06400
H715        H  0.69516587  0.31441660  0.99039872     0.05400
H716        H  0.71369276  0.33275455  0.99124486    -0.00400
H717        H  0.71400512  0.30658162  0.01337651     0.01100
H718        H  0.73698540  0.27397650  0.85966220     0.04800
H719        H  0.73369845  0.24877990  0.88329713     0.06700
H720        H  0.75371442  0.26423593  0.88604594     0.07600
C721        C  0.87689488  0.44717417  0.38475812    -0.22000
C722        C  0.87299412  0.43187025  0.40927096     0.09900
C723        C  0.88188400  0.43305754  0.43874009     0.10300
C724        C  0.89444540  0.44984394  0.44316626    -0.16900
C725        C  0.89809231  0.46551231  0.41887402    -0.27400
C726        C  0.88937207  0.46401442  0.38914036     0.18700
C727        C  0.85955957  0.41471055  0.40323146     0.12600
C728        C  0.87780964  0.41697292  0.46563523    -0.11700
H729        H  0.90108173  0.45117741  0.46600055     0.12900
C730        C  0.89313630  0.47948792  0.36133397    -0.22600
H731        H  0.87012758  0.44595129  0.36202865     0.08600
C732        C  0.84170307  0.41996387  0.40496057     0.04900
C733        C  0.82943607  0.40359312  0.39660238    -0.19800
C734        C  0.83470616  0.38225498  0.38638004    -0.12100
C735        C  0.85258335  0.37675878  0.38576213     0.13600
C736        C  0.86482266  0.39315848  0.39409814    -0.22500
C737        C  0.83565004  0.44286991  0.41530212    -0.05600
H738        H  0.81568878  0.40762253  0.39714916     0.15100
C739        C  0.85915691  0.35382391  0.37663606    -0.15800
H740        H  0.87857955  0.38921933  0.39307520     0.09500
H741        H  0.88121411  0.48905469  0.35512216     0.07300
H742        H  0.89714336  0.46940184  0.34024475     0.08500
H743        H  0.90372726  0.49160082  0.36630055     0.07600
H744        H  0.88051508  0.39951140  0.45790181     0.02400
H745        H  0.86387836  0.41843382  0.47234145     0.02900
H746        H  0.88577155  0.42048003  0.48725662     0.06400
H747        H  0.82123348  0.44404688  0.41568108     0.05400
H748        H  0.84064769  0.45582535  0.39847870    -0.00400
H749        H  0.84053144  0.44647504  0.43979173     0.01100
H750        H  0.86744620  0.35518992  0.35491840     0.04800
H751        H  0.84855367  0.34171694  0.37167802     0.06700
H752        H  0.86705284  0.34685074  0.39658749     0.07600
C753        C  0.12394724  0.40807190  0.43483810    -0.22000
C754        C  0.14067539  0.40398180  0.44661011     0.09900
C755        C  0.14838414  0.41913849  0.46822714     0.10300
C756        C  0.13898734  0.43800914  0.47809480    -0.16900
C757        C  0.12216147  0.44222076  0.46647281    -0.27400
C758        C  0.11468973  0.42729500  0.44389361     0.18700
C759        C  0.15036338  0.38437605  0.43468067     0.12600
C760        C  0.16649099  0.41531736  0.48093323    -0.11700
H761        H  0.14476135  0.44943651  0.49523809     0.12900
C762        C  0.09757452  0.43154832  0.42733072    -0.22600
H763        H  0.11832758  0.39655810  0.41761581     0.08600
C764        C  0.14872408  0.36308557  0.44913107     0.04900
C765        C  0.15913182  0.34537922  0.43817673    -0.19800
C766        C  0.17137100  0.34869686  0.41358598    -0.12100
C767        C  0.17310232  0.37029908  0.39945415     0.13600
C768        C  0.16219230  0.38764769  0.40964565    -0.22500
C769        C  0.13622918  0.35923739  0.47640690    -0.05600
H770        H  0.15785987  0.32891544  0.44906666     0.15100
C771        C  0.18688818  0.37625462  0.37508235    -0.15800
H772        H  0.16349937  0.40421452  0.39904257     0.09500
H773        H  0.08796463  0.41863983  0.43484157     0.07300
H774        H  0.09942733  0.43044546  0.40097957     0.08500
H775        H  0.09218172  0.44841463  0.43201352     0.07600
H776        H  0.17594180  0.41519750  0.46081044     0.02400
H777        H  0.16706574  0.39896342  0.49371242     0.02900
H778        H  0.17047638  0.42868487  0.49792009     0.06400
H779        H  0.13665724  0.34162032  0.48515553     0.05400
H780        H  0.12276086  0.36290880  0.46839457    -0.00400
H781        H  0.13959083  0.37043904  0.49670747     0.01100
H782        H  0.18063542  0.38025080  0.35177490     0.04800
H783        H  0.19664776  0.36288831  0.37145167     0.06700
H784        H  0.19419797  0.39124486  0.38335908     0.07600
C785        C  0.35748117  0.89452724  0.10076934    -0.22000
C786        C  0.37087705  0.89132895  0.07850717     0.09900
C787        C  0.37394550  0.86978729  0.06582488     0.10300
C788        C  0.36360048  0.85174879  0.07614149    -0.16900
C789        C  0.35024958  0.85489466  0.09867481    -0.27400
C790        C  0.34689811  0.87667333  0.11062883     0.18700
C791        C  0.38143736  0.91096325  0.06896633     0.12600
C792        C  0.38801941  0.86592389  0.04134423    -0.11700
H793        H  0.36605989  0.83505228  0.06692009     0.12900
C794        C  0.33200730  0.88190601  0.13292571    -0.22600
H795        H  0.35510470  0.91120538  0.11015424     0.08600
C796        C  0.37485608  0.92740082  0.04790249     0.04900
C797        C  0.38485958  0.94654651  0.04134233    -0.19800
C798        C  0.40120394  0.94979588  0.05569262    -0.12100
C799        C  0.40763463  0.93335534  0.07731293     0.13600
C800        C  0.39778549  0.91392820  0.08307155    -0.22500
C801        C  0.35734062  0.92464451  0.03219698    -0.05600
H802        H  0.37990838  0.95900676  0.02473004     0.15100
C803        C  0.42415791  0.93610711  0.09636256    -0.15800
H804        H  0.40256421  0.90139023  0.09977208     0.09500
H805        H  0.32376068  0.89520386  0.12208693     0.07300
H806        H  0.33719259  0.88807484  0.15611695     0.08500
H807        H  0.32345136  0.86730585  0.13765023     0.07600
H808        H  0.40087521  0.87035074  0.05164287     0.02400
H809        H  0.38556500  0.87652052  0.01988457     0.02900
H810        H  0.38850085  0.84811399  0.03359000     0.06400
H811        H  0.35432433  0.93885796  0.01584356     0.05400
H812        H  0.34699076  0.92387520  0.05071902    -0.00400
H813        H  0.35714796  0.90891547  0.01799206     0.01100
H814        H  0.42134123  0.93339204  0.12219948     0.04800
H815        H  0.42991925  0.95305763  0.09442871     0.06700
H816        H  0.43385354  0.92347057  0.08848722     0.07600
C817        C  0.27394903  0.73812212  0.00624595    -0.22000
C818        C  0.27636619  0.76140304  0.00641638     0.09900
C819        C  0.26760863  0.77497688  0.98392328     0.10300
C820        C  0.25589454  0.76497618  0.96258128    -0.16900
C821        C  0.25302961  0.74169049  0.96293058    -0.27400
C822        C  0.26262719  0.72798335  0.98433980     0.18700
C823        C  0.28803442  0.77123014  0.03063810     0.12600
C824        C  0.27060333  0.79995801  0.98256488    -0.11700
H825        H  0.24871559  0.77540614  0.94587285     0.12900
C826        C  0.26173282  0.70269173  0.98416603    -0.22600
H827        H  0.28106319  0.72778840  0.02318430     0.08600
C828        C  0.28161230  0.77845596  0.06050440     0.04900
C829        C  0.29309950  0.78811580  0.08257517    -0.19800
C830        C  0.31088399  0.79044532  0.07554763    -0.12100
C831        C  0.31739186  0.78224937  0.04600728     0.13600
C832        C  0.30578930  0.77303949  0.02373394    -0.22500
C833        C  0.26263305  0.77609019  0.06891640    -0.05600
H834        H  0.28810273  0.79439024  0.10513448     0.15100
C835        C  0.33645172  0.78234495  0.03744778    -0.15800
H836        H  0.31063814  0.76702153  0.00090918     0.09500
H837        H  0.25635932  0.69662171  0.00732842     0.07300
H838        H  0.27503017  0.69575895  0.98107235     0.08500
H839        H  0.25370055  0.69589883  0.96442471     0.07600
H840        H  0.28454229  0.80341017  0.97759430     0.02400
H841        H  0.26698727  0.80770501  0.00577934     0.02900
H842        H  0.26275357  0.80804005  0.96340883     0.06400
H843        H  0.25979738  0.78256093  0.09330126     0.05400
H844        H  0.25883436  0.75811386  0.06818536    -0.00400
H845        H  0.25457350  0.78562317  0.05153321     0.01100
H846        H  0.34058548  0.76505775  0.03113293     0.04800
H847        H  0.34491088  0.78793060  0.05736284     0.06700
H848        H  0.33864228  0.79349345  0.01645290     0.07600
C849        C  0.14150900  0.64140784  0.58708642    -0.22000
C850        C  0.15368382  0.64781962  0.56381354     0.09900
C851        C  0.15290242  0.63849861  0.53287135     0.10300
C852        C  0.14011408  0.62245446  0.52605448    -0.16900
C853        C  0.12821496  0.61538754  0.54956823    -0.27400
C854        C  0.12876871  0.62518562  0.58041992     0.18700
C855        C  0.16833335  0.66231159  0.57339666     0.12600
C856        C  0.16595197  0.64490187  0.50746664    -0.11700
H857        H  0.13973111  0.61484178  0.50249725     0.12900
C858        C  0.11681179  0.61764955  0.60698322    -0.22600
H859        H  0.14243753  0.64851985  0.61091387     0.08600
C860        C  0.16767159  0.68587697  0.57035685     0.04900
C861        C  0.18218140  0.69866561  0.57949123    -0.19800
C862        C  0.19704264  0.68827057  0.59206594    -0.12100
C863        C  0.19758953  0.66470711  0.59543770     0.13600
C864        C  0.18323051  0.65195845  0.58581407    -0.22500
C865        C  0.15159369  0.69743055  0.55805057    -0.05600
H866        H  0.18182198  0.71680459  0.57750340     0.15100
C867        C  0.21329991  0.65305786  0.60924749    -0.15800
H868        H  0.18353777  0.63383092  0.58813495     0.09500
H869        H  0.11995705  0.62601570  0.63002310     0.07300
H870        H  0.11803841  0.59925233  0.61066976     0.08500
H871        H  0.10317681  0.62192966  0.60095854     0.07600
H872        H  0.17927644  0.64061757  0.51568298     0.02400
H873        H  0.16523637  0.66320522  0.50265675     0.02900
H874        H  0.16351431  0.63594254  0.48459808     0.06400
H875        H  0.15323207  0.71595247  0.55738125     0.05400
H876        H  0.14040866  0.69345019  0.57393340    -0.00400
H877        H  0.14862960  0.69162529  0.53340910     0.01100
H878        H  0.21551277  0.65872927  0.63423273     0.04800
H879        H  0.22494897  0.65705355  0.59454979     0.06700
H880        H  0.21163525  0.63453633  0.60968239     0.07600
C881        C  0.21687513  0.73807626  0.80025306    -0.22000
C882        C  0.23179978  0.72965180  0.78537250     0.09900
C883        C  0.24630181  0.72330104  0.80389702     0.10300
C884        C  0.24500141  0.72381504  0.83736460    -0.16900
C885        C  0.22966565  0.73103090  0.85245291    -0.27400
C886        C  0.21572819  0.73927554  0.83364264     0.18700
C887        C  0.23144798  0.72639689  0.75046915     0.12600
C888        C  0.26303278  0.71591845  0.78833547    -0.08500
H889        H  0.25577112  0.71784182  0.85180730     0.12900
C890        C  0.19961230  0.74965861  0.84786575    -0.22600
H891        H  0.20596008  0.74347311  0.78568803     0.08600
C892        C  0.22719304  0.70533936  0.73733732     0.04900
C893        C  0.22639736  0.70305502  0.70405106    -0.19800
C894        C  0.22883993  0.72159964  0.68367032    -0.12100
C895        C  0.23234051  0.74299268  0.69708593     0.13600
C896        C  0.23407566  0.74492769  0.73037954    -0.22500
C897        C  0.22287844  0.68548331  0.75841958    -0.05600
H898        H  0.22359053  0.68673755  0.69385925     0.15100
C899        C  0.23334814  0.76432652  0.67758533    -0.15800
H900        H  0.23680569  0.76119036  0.74087358     0.09500
H901        H  0.18811399  0.73910906  0.84217578     0.07300
H902        H  0.19766540  0.76664374  0.83743823     0.08500
H903        H  0.20045564  0.75176541  0.87417123     0.07600
H904        H  0.26813324  0.72967651  0.77296623     0.02400
H905        H  0.26081428  0.70087149  0.77330556     0.02900
H906        H  0.27311598  0.71169331  0.80641838     0.06400
H907        H  0.21949150  0.67041425  0.74410027     0.05400
H908        H  0.21155820  0.68959631  0.77385487    -0.00400
H909        H  0.23411869  0.68115182  0.77385664     0.01100
H910        H  0.22418745  0.77688200  0.68762377     0.04800
H911        H  0.22966294  0.76206270  0.65217959     0.06700
H912        H  0.24674702  0.77124591  0.67874437     0.07600
C913        C  0.37784907  0.85964107  0.48865033    -0.22000
C914        C  0.37601704  0.88209946  0.47925768     0.09900
C915        C  0.36297379  0.88818806  0.45713197     0.10300
C916        C  0.35202201  0.87157713  0.44468165    -0.16900
C917        C  0.35378634  0.84905472  0.45395491    -0.27400
C918        C  0.36685492  0.84295016  0.47624079     0.18700
C919        C  0.38823949  0.89908046  0.49175983     0.12600
C920        C  0.36065062  0.91223378  0.44667551    -0.11700
H921        H  0.34196776  0.87616621  0.42767234     0.12900
C922        C  0.36969997  0.81885121  0.48603921    -0.22600
H923        H  0.38802028  0.85518180  0.50548031     0.08600
C924        C  0.38472305  0.91098766  0.52014436     0.04900
C925        C  0.39550161  0.92901575  0.52865186    -0.19800
C926        C  0.40973559  0.93528424  0.50946428    -0.12100
C927        C  0.41351497  0.92282556  0.48145249     0.13600
C928        C  0.40273444  0.90475881  0.47311320    -0.22500
C929        C  0.36933950  0.90503471  0.54087026    -0.05600
H930        H  0.39257357  0.93862776  0.55000264     0.15100
C931        C  0.42809175  0.92926052  0.45906842    -0.15800
H932        H  0.40517612  0.89553403  0.45120808     0.09500
H933        H  0.35823074  0.81235636  0.49923909     0.07300
H934        H  0.38115518  0.81705288  0.50204757     0.08500
H935        H  0.37197609  0.80840655  0.46445018     0.07600
H936        H  0.37270340  0.91836290  0.43487423     0.02400
H937        H  0.35780963  0.92288460  0.46782434     0.02900
H938        H  0.34975425  0.91409373  0.42940952     0.06400
H939        H  0.36840196  0.91612386  0.56215326     0.05400
H940        H  0.37058620  0.88744195  0.54940944    -0.00400
H941        H  0.35713518  0.90674872  0.52687500     0.01100
H942        H  0.42815978  0.91873199  0.43714026     0.04800
H943        H  0.44080082  0.92685128  0.47107375     0.06700
H944        H  0.42662964  0.94703341  0.45145560     0.07600
C945        C  0.32340439  0.82677812  0.30378944    -0.22000
C946        C  0.32716671  0.80575433  0.29055715     0.09900
C947        C  0.33100229  0.78746161  0.31084335     0.10300
C948        C  0.33149322  0.79080631  0.34408676    -0.16900
C949        C  0.32814850  0.81199906  0.35738251    -0.27400
C950        C  0.32355988  0.83009376  0.33700601     0.18700
C951        C  0.32799249  0.80378430  0.25530354     0.12600
C952        C  0.33449015  0.76447417  0.29738481    -0.11700
H953        H  0.33471114  0.77689506  0.35980555     0.12900
C954        C  0.31829395  0.85288262  0.34930522    -0.22600
H955        H  0.32030777  0.84071911  0.28801965     0.08600
C956        C  0.31285584  0.80300737  0.23628949     0.04900
C957        C  0.31445455  0.80374442  0.20279032    -0.19800
C958        C  0.33086752  0.80507759  0.18800671    -0.12100
C959        C  0.34603554  0.80417777  0.20724551     0.13600
C960        C  0.34436739  0.80398101  0.24065220    -0.22500
C961        C  0.29507922  0.80168781  0.25137179    -0.05600
H962        H  0.30282334  0.80426886  0.18814079     0.15100
C963        C  0.36415671  0.80316317  0.19349876    -0.15800
H964        H  0.35595723  0.80418546  0.25545570     0.09500
H965        H  0.30518237  0.85716765  0.33997305     0.07300
H966        H  0.32772379  0.86570523  0.34077771     0.08500
H967        H  0.31756403  0.85374830  0.37576956     0.07600
H968        H  0.34609101  0.76498871  0.28156313     0.02400
H969        H  0.32306167  0.75877083  0.28332076     0.02900
H970        H  0.33694854  0.75196066  0.31663810     0.06400
H971        H  0.28464219  0.80083739  0.23301829     0.05400
H972        H  0.29273963  0.81672585  0.26639502    -0.00400
H973        H  0.29419085  0.78640682  0.26659228     0.01100
H974        H  0.37142601  0.81858204  0.20011871     0.04800
H975        H  0.36429749  0.80137256  0.16708315     0.06700
H976        H  0.37105514  0.78835351  0.20351015     0.07600
C977        C  0.27122612  0.73251980  0.52745564    -0.22000
C978        C  0.27415510  0.75556287  0.53131541     0.09900
C979        C  0.26601030  0.76722774  0.55649964     0.10300
C980        C  0.25460194  0.75565689  0.57675092    -0.16900
C981        C  0.25144336  0.73259198  0.57285879    -0.27400
C982        C  0.26023516  0.72071350  0.54837255     0.18700
C983        C  0.28574644  0.76730422  0.50867211     0.12600
C984        C  0.26950239  0.79179873  0.56221955    -0.11700
H985        H  0.24795872  0.76472904  0.59562435     0.12900
C986        C  0.25892386  0.69563683  0.54426803    -0.22600
H987        H  0.27778111  0.72364138  0.50828437     0.08600
C988        C  0.30398244  0.76551501  0.51097702     0.04900
C989        C  0.31440813  0.77781134  0.48972120    -0.19800
C990        C  0.30695248  0.79188018  0.46648598    -0.12100
C991        C  0.28866312  0.79382921  0.46442870     0.13600
C992        C  0.27826615  0.78127253  0.48542412    -0.22500
C993        C  0.31240003  0.75109437  0.53629289    -0.05600
H994        H  0.32845279  0.77659706  0.49132456     0.15100
C995        C  0.28007747  0.80983992  0.44128588    -0.15800
H996        H  0.26422082  0.78266069  0.48420590     0.09500
H997        H  0.27216263  0.68821031  0.54498194     0.07300
H998        H  0.25291308  0.69179358  0.52072563     0.08500
H999        H  0.25124938  0.68732137  0.56337369     0.07600
H1000       H  0.26529357  0.80182398  0.54116516     0.02400
H1001       H  0.28362811  0.79445794  0.56627297     0.02900
H1002       H  0.26239509  0.79811474  0.58354675     0.06400
H1003       H  0.32681714  0.75201987  0.53510983     0.05400
H1004       H  0.30851860  0.73330559  0.53299401    -0.00400
H1005       H  0.30825167  0.75678841  0.56043086     0.01100
H1006       H  0.28266098  0.80470137  0.41623327     0.04800
H1007       H  0.28511484  0.82709442  0.44515526     0.06700
H1008       H  0.26574143  0.81021853  0.44456253     0.07600
C1009       C  0.87554739  0.43641695  0.02896275    -0.22000
C1010       C  0.86385031  0.43270105  0.00381544     0.09900
C1011       C  0.86454070  0.44632763  0.97622126     0.10300
C1012       C  0.87699937  0.46350485  0.97442982    -0.16900
C1013       C  0.88861330  0.46753459  0.99979994    -0.27400
C1014       C  0.88771712  0.45393114  0.02767507     0.18700
C1015       C  0.85000941  0.41580084  0.00861442     0.12600
C1016       C  0.85209441  0.44278630  0.94884505    -0.11700
H1017       H  0.87762613  0.47394384  0.95313621     0.12900
C1018       C  0.89842344  0.45808069  0.05734717    -0.22600
H1019       H  0.87464161  0.42614843  0.05041380     0.08600
C1020       C  0.85309324  0.39266809  0.00433794     0.04900
C1021       C  0.84031702  0.37714932  0.01389626    -0.19800
C1022       C  0.82464484  0.38443342  0.02756389    -0.12100
C1023       C  0.82121974  0.40767099  0.03017803     0.13600
C1024       C  0.83399604  0.42307251  0.02071181    -0.22500
C1025       C  0.86995959  0.38446418  0.99028887    -0.05600
H1026       H  0.84279400  0.35930581  0.01180595     0.15100
C1027       C  0.80442081  0.41677793  0.04352496    -0.15800
H1028       H  0.83168244  0.44089389  0.02377424     0.09500
H1029       H  0.90719014  0.44358246  0.06162081     0.07300
H1030       H  0.88963492  0.45990435  0.07831859     0.08500
H1031       H  0.90631140  0.47357485  0.05613852     0.07600
H1032       H  0.83852175  0.44515071  0.95726093     0.02400
H1033       H  0.85357821  0.42550299  0.93935920     0.02900
H1034       H  0.85451040  0.45480910  0.92893163     0.06400
H1035       H  0.87021636  0.36587790  0.98834479     0.05400
H1036       H  0.88099675  0.38974669  0.00566535    -0.00400
H1037       H  0.87171056  0.39165016  0.96591371     0.01100
H1038       H  0.80717899  0.42682790  0.06530878     0.04800
H1039       H  0.79496389  0.40347343  0.05004085     0.06700
H1040       H  0.79816181  0.42776479  0.02535319     0.07600
C1041       C  0.16855794  0.68569885  0.94813468    -0.22000
C1042       C  0.17323292  0.66528471  0.96236447     0.09900
C1043       C  0.19085169  0.66071309  0.96910519     0.10300
C1044       C  0.20354063  0.67654908  0.96056335    -0.16900
C1045       C  0.19894437  0.69672844  0.94535350    -0.27400
C1046       C  0.18118117  0.70164801  0.93985710     0.18700
C1047       C  0.15950552  0.64854795  0.96877138     0.12600
C1048       C  0.19623276  0.63904068  0.98490708    -0.11700
H1049       H  0.21716090  0.67285046  0.96473622     0.12900
C1050       C  0.17506517  0.72358508  0.92576899    -0.22600
H1051       H  0.15495669  0.68915107  0.94333023     0.08600
C1052       C  0.14880894  0.64982186  0.99616115     0.04900
C1053       C  0.13607827  0.63328484  0.00120209    -0.19800
C1054       C  0.13407178  0.61548344  0.97960281    -0.12100
C1055       C  0.14453483  0.61457067  0.95174197     0.13600
C1056       C  0.15712764  0.63120280  0.94665798    -0.22500
C1057       C  0.15110204  0.66834959  0.02026012    -0.05600
H1058       H  0.12801042  0.63386901  0.02249683     0.15100
C1059       C  0.14216612  0.59651535  0.92685883    -0.15800
H1060       H  0.16526995  0.63064173  0.92545072     0.09500
H1061       H  0.16548618  0.73141948  0.94221783     0.07300
H1062       H  0.16870897  0.72048906  0.90230472     0.08500
H1063       H  0.18573807  0.73584504  0.92229462     0.07600
H1064       H  0.19246144  0.62461897  0.96962197     0.02400
H1065       H  0.18973294  0.63743782  0.00857393     0.02900
H1066       H  0.21051463  0.63828537  0.98876611     0.06400
H1067       H  0.14183041  0.66667943  0.04055233     0.05400
H1068       H  0.14885353  0.68485791  0.00858358    -0.00400
H1069       H  0.16451946  0.66788273  0.03007165     0.01100
H1070       H  0.15066418  0.59934156  0.90568567     0.04800
H1071       H  0.12846298  0.59635922  0.91847492     0.06700
H1072       H  0.14553266  0.57986523  0.93697625     0.07600
C1073       C  0.14141312  0.41234054  0.02187835    -0.22000
C1074       C  0.14023131  0.40383081  0.05308307     0.09900
C1075       C  0.12826788  0.41314629  0.07491830     0.10300
C1076       C  0.11787657  0.43121691  0.06507013    -0.16900
C1077       C  0.11947963  0.44026013  0.03412474    -0.27400
C1078       C  0.13110582  0.43038601  0.01198104     0.18700
C1079       C  0.15234781  0.38587465  0.06256715     0.12600
C1080       C  0.12668964  0.40423244  0.10860862    -0.11700
H1081       H  0.10900505  0.43892316  0.08197474     0.12900
C1082       C  0.13284326  0.43814557  0.97769152    -0.22600
H1083       H  0.15059188  0.40495821  0.00521334     0.08600
C1084       C  0.14963099  0.36340045  0.05328277     0.04900
C1085       C  0.16224205  0.34726886  0.06088404    -0.19800
C1086       C  0.17732227  0.35325784  0.07767538    -0.12100
C1087       C  0.17989664  0.37568446  0.08737046     0.13600
C1088       C  0.16736645  0.39181265  0.07952940    -0.22500
C1089       C  0.13340306  0.35651559  0.03564307    -0.05600
H1090       H  0.16032788  0.32992687  0.05389490     0.15100
C1091       C  0.19598862  0.38263632  0.10541099    -0.15800
H1092       H  0.16934281  0.40918584  0.08631070     0.09500
H1093       H  0.13049434  0.42375286  0.96139742     0.07300
H1094       H  0.14620719  0.44461542  0.97352679     0.08500
H1095       H  0.12341113  0.45140481  0.97109625     0.07600
H1096       H  0.13927511  0.40615834  0.12133174     0.02400
H1097       H  0.12309075  0.38618647  0.10798234     0.02900
H1098       H  0.11658779  0.41333821  0.12246316     0.06400
H1099       H  0.13320783  0.33820541  0.03071616     0.05400
H1100       H  0.13262603  0.36553069  0.01237406    -0.00400
H1101       H  0.12178362  0.36067247  0.05028184     0.01100
H1102       H  0.20773382  0.37854008  0.09108602     0.04800
H1103       H  0.19660919  0.37366387  0.12872489     0.06700
H1104       H  0.19610397  0.40094356  0.11036944     0.07600
C1105       C  0.69044389  0.91923695  0.42206027    -0.22000
C1106       C  0.67504171  0.91151520  0.43626828     0.09900
C1107       C  0.67254885  0.88830843  0.44133079     0.10300
C1108       C  0.68557726  0.87326113  0.43179169    -0.16900
C1109       C  0.70095212  0.88100021  0.41739332    -0.27400
C1110       C  0.70357396  0.90431226  0.41297539     0.18700
C1111       C  0.66181916  0.92822231  0.44571717     0.12600
C1112       C  0.65625819  0.87948900  0.45700086    -0.11700
H1113       H  0.68369227  0.85537307  0.43516422     0.12900
C1114       C  0.72015271  0.91409275  0.39950482    -0.22600
H1115       H  0.69230522  0.93710871  0.41837319     0.08600
C1116       C  0.66448417  0.94255010  0.47210566     0.04900
C1117       C  0.65222646  0.95929274  0.47867273    -0.19800
C1118       C  0.63729806  0.96188567  0.45968724    -0.12100
C1119       C  0.63445321  0.94718960  0.43362138     0.13600
C1120       C  0.64683249  0.93055090  0.42691622    -0.22500
C1121       C  0.68021823  0.94014055  0.49336569    -0.05600
H1122       H  0.65436222  0.97056995  0.49863630     0.15100
C1123       C  0.61894448  0.94961133  0.41182945    -0.15800
H1124       H  0.64502874  0.91957417  0.40650595     0.09500
H1125       H  0.72575795  0.92610520  0.41699738     0.07300
H1126       H  0.71726844  0.92319433  0.37686983     0.08500
H1127       H  0.73023404  0.90129622  0.39454346     0.07600
H1128       H  0.64474681  0.88384377  0.44221896     0.02400
H1129       H  0.65480117  0.88701019  0.48116877     0.02900
H1130       H  0.65660305  0.86094519  0.45976097     0.06400
H1131       H  0.67998509  0.95230222  0.51348579     0.05400
H1132       H  0.69226144  0.94319174  0.47935278    -0.00400
H1133       H  0.68060358  0.92294030  0.50366285     0.01100
H1134       H  0.61951781  0.93768433  0.39144378     0.04800
H1135       H  0.61846555  0.96688896  0.40182068     0.06700
H1136       H  0.60681568  0.94602176  0.42525811     0.07600
C1137       C  0.85379835  0.67419937  0.57473118    -0.22000
C1138       C  0.86957968  0.68069146  0.56063524     0.09900
C1139       C  0.87389643  0.70363410  0.55806761     0.10300
C1140       C  0.86198063  0.71970586  0.56870561    -0.16900
C1141       C  0.84604882  0.71325166  0.58218361    -0.27400
C1142       C  0.84197013  0.69026683  0.58583410     0.18700
C1143       C  0.88103333  0.66325851  0.54725757     0.12600
C1144       C  0.89111320  0.71110265  0.54442710    -0.11700
H1145       H  0.86505971  0.73741117  0.56649157     0.12900
C1146       C  0.82528295  0.68218656  0.60095137    -0.22600
H1147       H  0.85062152  0.65650904  0.57671698     0.08600
C1148       C  0.89174734  0.64994201  0.56696859     0.04900
C1149       C  0.90227755  0.63353066  0.55284382    -0.19800
C1150       C  0.90238951  0.63033352  0.51947704    -0.12100
C1151       C  0.89214679  0.64443370  0.49970363     0.13600
C1152       C  0.88129630  0.66036783  0.51398982    -0.22500
C1153       C  0.89211054  0.65314416  0.60276157    -0.05600
H1154       H  0.91018465  0.62283448  0.56800487     0.15100
C1155       C  0.89282386  0.64399416  0.46359265    -0.15800
H1156       H  0.87322985  0.67101299  0.49900427     0.09500
H1157       H  0.82833857  0.67174203  0.62230098     0.07300
H1158       H  0.81795501  0.67182749  0.58347071     0.08500
H1159       H  0.81671603  0.69609103  0.60875285     0.07600
H1160       H  0.89230811  0.70557978  0.51915218     0.02400
H1161       H  0.90187063  0.70369860  0.55870142     0.02900
H1162       H  0.89252512  0.72965554  0.54494503     0.06400
H1163       H  0.90144966  0.64154787  0.61453933     0.05400
H1164       H  0.87901055  0.64989753  0.61296548    -0.00400
H1165       H  0.89607252  0.67062169  0.60839433     0.01100
H1166       H  0.88005022  0.63848432  0.45401508     0.04800
H1167       H  0.90312927  0.63292924  0.45403600     0.06700
H1168       H  0.89566593  0.66114043  0.45444828     0.07600
C1169       C  0.79805992  0.78946909  0.50208275    -0.22000
C1170       C  0.78035585  0.79214283  0.50877184     0.09900
C1171       C  0.77354951  0.78471046  0.53831294     0.10300
C1172       C  0.78467252  0.77450223  0.56059007    -0.16900
C1173       C  0.80248727  0.77184122  0.55412193    -0.27400
C1174       C  0.80933314  0.77982415  0.52460568     0.18700
C1175       C  0.76928276  0.80367376  0.48503037     0.12600
C1176       C  0.75458141  0.78768511  0.54630228    -0.11700
H1177       H  0.77941740  0.76840034  0.58310643     0.12900
C1178       C  0.82844939  0.77944376  0.51642643    -0.22600
H1179       H  0.80320265  0.79558636  0.47946868     0.08600
C1180       C  0.76797836  0.82726003  0.48448365     0.04900
C1181       C  0.75695360  0.83751988  0.46213563    -0.19800
C1182       C  0.74723113  0.82470603  0.44036110    -0.12100
C1183       C  0.74851061  0.80099390  0.44105528     0.13600
C1184       C  0.75968716  0.79079575  0.46327600    -0.22500
C1185       C  0.77818732  0.84154239  0.50754184    -0.05600
H1186       H  0.75600664  0.85567215  0.46143191     0.15100
C1187       C  0.73793299  0.78590070  0.41962750    -0.15800
H1188       H  0.76069417  0.77264684  0.46406185     0.09500
H1189       H  0.83275832  0.79662084  0.50969264     0.07300
H1190       H  0.83066288  0.76807938  0.49577923     0.08500
H1191       H  0.83680261  0.77404710  0.53660434     0.07600
H1192       H  0.74646898  0.77862226  0.52853616     0.02400
H1193       H  0.75119192  0.80579321  0.54575464     0.02900
H1194       H  0.75141330  0.78104120  0.57051291     0.06400
H1195       H  0.77556954  0.85970873  0.50395494     0.05400
H1196       H  0.79232450  0.83867764  0.50402591    -0.00400
H1197       H  0.77462589  0.83710380  0.53255932     0.01100
H1198       H  0.74677954  0.77618708  0.40386023     0.04800
H1199       H  0.72856097  0.79513678  0.40438745     0.06700
H1200       H  0.73030379  0.77398827  0.43458481     0.07600
C1201       C  0.86554537  0.71136761  0.94800223    -0.22000
C1202       C  0.88286591  0.70929179  0.93810393     0.09900
C1203       C  0.89095923  0.72699420  0.92130813     0.10300
C1204       C  0.88135974  0.74635013  0.91417854    -0.16900
C1205       C  0.86377898  0.74818576  0.92295499    -0.27400
C1206       C  0.85575150  0.73045392  0.94021555     0.18700
C1207       C  0.89168965  0.68754798  0.94271864     0.12600
C1208       C  0.90955715  0.72517315  0.91023068    -0.11700
H1209       H  0.88742090  0.75986968  0.90075160     0.12900
C1210       C  0.83673857  0.73029462  0.94913226    -0.22600
H1211       H  0.85938677  0.69750873  0.96055623     0.08600
C1212       C  0.90092359  0.68246785  0.97095876     0.04900
C1213       C  0.90896191  0.66143817  0.97393716    -0.19800
C1214       C  0.90769048  0.64539923  0.94946326    -0.12100
C1215       C  0.89859314  0.65067284  0.92097765     0.13600
C1216       C  0.89061812  0.67169176  0.91809030    -0.22500
C1217       C  0.90211449  0.69913229  0.99792592    -0.05600
H1218       H  0.91593204  0.65728357  0.99573443     0.15100
C1219       C  0.89743889  0.63495040  0.89279922    -0.15800
H1220       H  0.88359307  0.67584306  0.89633707     0.09500
H1221       H  0.83542877  0.72962750  0.97561966     0.07300
H1222       H  0.83041649  0.71520118  0.93876715     0.08500
H1223       H  0.82950680  0.74507747  0.94020858     0.07600
H1224       H  0.91094479  0.71075185  0.89363752     0.02400
H1225       H  0.91822077  0.72260461  0.93118843     0.02900
H1226       H  0.91388018  0.74056602  0.89741131     0.06400
H1227       H  0.90980846  0.69244894  0.01834928     0.05400
H1228       H  0.88886408  0.70317702  0.00677253    -0.00400
H1229       H  0.90847263  0.71476159  0.98931233     0.01100
H1230       H  0.88362179  0.63048256  0.88841852     0.04800
H1231       H  0.90493364  0.61926764  0.89617256     0.06700
H1232       H  0.90270602  0.64342680  0.87112212     0.07600
C1233       C  0.84924396  0.78627553  0.77503175    -0.22000
C1234       C  0.83202091  0.78386784  0.76459911     0.09900
C1235       C  0.81826228  0.78547874  0.78687807     0.10300
C1236       C  0.82212640  0.78832553  0.81942455    -0.16900
C1237       C  0.83940647  0.78965297  0.83011735    -0.27400
C1238       C  0.85311667  0.78954847  0.80747791     0.18700
C1239       C  0.82882294  0.77784699  0.73076472     0.12600
C1240       C  0.79953684  0.78396003  0.77641487    -0.11700
H1241       H  0.81163215  0.78850557  0.83679138     0.12900
C1242       C  0.87190071  0.79293858  0.81663763    -0.22600
H1243       H  0.85977159  0.78515947  0.75780322     0.08600
C1244       C  0.83165252  0.79315564  0.70541504     0.04900
C1245       C  0.82922750  0.78596521  0.67372624    -0.19800
C1246       C  0.82394134  0.76390738  0.66699977    -0.12100
C1247       C  0.82035851  0.74893819  0.69256903     0.13600
C1248       C  0.82323974  0.75597539  0.72405513    -0.22500
C1249       C  0.83716283  0.81700100  0.71177178    -0.05600
H1250       H  0.83191521  0.79740011  0.65407441     0.15100
C1251       C  0.81316677  0.72562758  0.68767278    -0.15800
H1252       H  0.82102801  0.74429869  0.74363792     0.09500
H1253       H  0.87734624  0.80726227  0.80279013     0.07300
H1254       H  0.87944982  0.77758483  0.81092017     0.08500
H1255       H  0.87364274  0.79686301  0.84237940     0.07600
H1256       H  0.79683824  0.76724472  0.76589357     0.02400
H1257       H  0.79680920  0.79717208  0.75828546     0.02900
H1258       H  0.79045684  0.78635058  0.79683501     0.06400
H1259       H  0.83829772  0.82686633  0.68923505     0.05400
H1260       H  0.85001622  0.81726800  0.72382168    -0.00400
H1261       H  0.82740113  0.82531843  0.72733973     0.01100
H1262       H  0.82274547  0.71302413  0.69620291     0.04800
H1263       H  0.80992091  0.72198703  0.66235800     0.06700
H1264       H  0.80096706  0.72369564  0.70168335     0.07600
C1265       C  0.64814691  0.93145961  0.04511691    -0.22000
C1266       C  0.66436847  0.93219432  0.02995759     0.09900
C1267       C  0.66669501  0.94563460  0.00252655     0.10300
C1268       C  0.65278023  0.95859696  0.99128068    -0.16900
C1269       C  0.63660722  0.95891539  0.00719070    -0.27400
C1270       C  0.63418530  0.94465276  0.03421308     0.18700
C1271       C  0.67911111  0.91990471  0.04435892     0.12600
C1272       C  0.68403891  0.94679897  0.98572909    -0.11700
H1273       H  0.65475273  0.96902914  0.97028531     0.12900
C1274       C  0.61738262  0.94368404  0.05270967    -0.22600
H1275       H  0.64659328  0.92094601  0.06618253     0.08600
C1276       C  0.68949630  0.92991643  0.06820808     0.04900
C1277       C  0.70385436  0.91818675  0.08025024    -0.19800
C1278       C  0.70803733  0.89667221  0.06902694    -0.12100
C1279       C  0.69729129  0.88636494  0.04576126     0.13600
C1280       C  0.68301431  0.89826170  0.03349205    -0.22500
C1281       C  0.68555389  0.95309765  0.08058954    -0.05600
H1282       H  0.71208255  0.92600488  0.09813247     0.15100
C1283       C  0.70018171  0.86277615  0.03394819    -0.15800
H1284       H  0.67484957  0.89061383  0.01536472     0.09500
H1285       H  0.61350562  0.96077648  0.06042955     0.07300
H1286       H  0.61856221  0.93315146  0.07461466     0.08500
H1287       H  0.60711605  0.93594480  0.03773140     0.07600
H1288       H  0.68776471  0.92984704  0.97716665     0.02400
H1289       H  0.69413602  0.95301785  0.00252569     0.02900
H1290       H  0.68369177  0.95829421  0.96473495     0.06400
H1291       H  0.69504094  0.95844207  0.09913432     0.05400
H1292       H  0.67237321  0.95334759  0.09145805    -0.00400
H1293       H  0.68606653  0.96541766  0.06059984     0.01100
H1294       H  0.68826000  0.85265354  0.03820056     0.04800
H1295       H  0.71103745  0.85411908  0.04625953     0.06700
H1296       H  0.70295176  0.86312856  0.00783324     0.07600
C1297       C  0.72467308  0.84368089  0.27207922    -0.22000
C1298       C  0.74037086  0.85334620  0.26203622     0.09900
C1299       C  0.75319405  0.85899155  0.28475736     0.10300
C1300       C  0.74972716  0.85556887  0.31739001    -0.16900
C1301       C  0.73367549  0.84687012  0.32758296    -0.27400
C1302       C  0.72117032  0.84024164  0.30463437     0.18700
C1303       C  0.74243291  0.85886082  0.22778330     0.12600
C1304       C  0.77032751  0.86900148  0.27456827    -0.11700
H1305       H  0.75925022  0.86063713  0.33511278     0.12900
C1306       C  0.70404511  0.82959316  0.31361492    -0.22600
H1307       H  0.71493502  0.83924077  0.25439317     0.08600
C1308       C  0.74680827  0.84238688  0.20503450     0.04900
C1309       C  0.74698001  0.84815748  0.17243640    -0.19800
C1310       C  0.74289087  0.87003612  0.16226120    -0.12100
C1311       C  0.73935343  0.88678656  0.18537208     0.13600
C1312       C  0.73893340  0.88085480  0.21783758    -0.22500
C1313       C  0.75110281  0.81875838  0.21520397    -0.05600
H1314       H  0.74978809  0.83537989  0.15472962     0.15100
C1315       C  0.73625511  0.91107971  0.17686490    -0.15800
H1316       H  0.73575619  0.89346970  0.23559178     0.09500
H1317       H  0.70282619  0.81310259  0.30147811     0.07300
H1318       H  0.69320190  0.84058705  0.30571151     0.08500
H1319       H  0.70272357  0.82655774  0.33971903     0.07600
H1320       H  0.76810824  0.88519165  0.26199872     0.02400
H1321       H  0.77712113  0.85727434  0.25816298     0.02900
H1322       H  0.77894552  0.87223047  0.29541211     0.06400
H1323       H  0.75443663  0.80802543  0.19436915     0.05400
H1324       H  0.73978044  0.81111851  0.22765345    -0.00400
H1325       H  0.76241658  0.81895849  0.23172899     0.01100
H1326       H  0.72277832  0.91584069  0.18356806     0.04800
H1327       H  0.73823675  0.91478484  0.15109843     0.06700
H1328       H  0.74551597  0.92180251  0.19034616     0.07600
C1329       C  0.82128602  0.83841570  0.98768201    -0.22000
C1330       C  0.80322532  0.83765109  0.98344133     0.09900
C1331       C  0.79611076  0.82614635  0.95706880     0.10300
C1332       C  0.80724424  0.81482306  0.93610014    -0.16900
C1333       C  0.82533524  0.81486753  0.94078807    -0.27400
C1334       C  0.83250202  0.82731806  0.96645755     0.18700
C1335       C  0.79181861  0.84736314  0.00820020     0.12600
C1336       C  0.77674882  0.82546450  0.95147182    -0.11700
H1337       H  0.80176221  0.80532812  0.91640527     0.12900
C1338       C  0.85179751  0.82957502  0.97192055    -0.22600
H1339       H  0.82663307  0.84746699  0.00792486     0.08600
C1340       C  0.78568258  0.83400765  0.03372548     0.04900
C1341       C  0.77359209  0.84302366  0.05515666    -0.19800
C1342       C  0.76767757  0.86521364  0.05195858    -0.12100
C1343       C  0.77464933  0.87901688  0.02734927     0.13600
C1344       C  0.78644384  0.86973590  0.00539358    -0.22500
C1345       C  0.79169025  0.81010573  0.03798573    -0.05600
H1346       H  0.76834306  0.83246021  0.07403240     0.15100
C1347       C  0.77035224  0.90359485  0.02395645    -0.15800
H1348       H  0.79146676  0.87997996  0.98595078     0.09500
H1349       H  0.85526580  0.82199258  0.99539915     0.07300
H1350       H  0.85538261  0.84763531  0.97218716     0.08500
H1351       H  0.85969392  0.82147887  0.95300478     0.07600
H1352       H  0.77174599  0.84280630  0.94832987     0.02400
H1353       H  0.77012002  0.81752046  0.97224698     0.02900
H1354       H  0.77338462  0.81570935  0.92969097     0.06400
H1355       H  0.78563705  0.80205567  0.05929432     0.05400
H1356       H  0.80602132  0.80976667  0.04120110    -0.00400
H1357       H  0.78819593  0.80004485  0.01659115     0.01100
H1358       H  0.78257535  0.91354476  0.02396932     0.04800
H1359       H  0.76221837  0.91003186  0.04381257     0.06700
H1360       H  0.76345801  0.90650396  0.00094450     0.07600
loop_ 
_geom_bond_atom_site_label_1 
_geom_bond_atom_site_label_2 
_geom_bond_distance 
_geom_bond_site_symmetry_2 
_ccdc_geom_bond_type 
C1            C2   1.402       .  A
C1            C6   1.400       .  A
C1         C1278   1.478       .  S
C2            C3   1.404       .  A
C2            H7   1.084       .  S
C3            C4   1.404       .  A
C3         C1342   1.481       .  S
C4            C5   1.400       .  A
C4            H8   1.084       .  S
C5            C6   1.402       .  A
C5         C1310   1.478       .  S
C6            H9   1.084       .  S
C10          C11   1.403       .  A
C10          C15   1.406       .  A
C10        C1333   1.479       .  S
C11          C12   1.400       .  A
C11          H16   1.084       .  S
C12          C13   1.400       .  A
C12        C1237   1.478       .  S
C13          C14   1.400       .  A
C13          H17   1.084       .  S
C14          C15   1.403       .  A
C14        C1205   1.478       .  S
C15          H18   1.084       .  S
C19          C20   1.403       .  A
C19          C24   1.406       .  A
C19        C1173   1.481       .  S
C20          C21   1.398       .  A
C20          H25   1.084       .  S
C21          C22   1.395       .  A
C21        C1141   1.466       .  S
C22          C23   1.401       .  A
C22          H26   1.084       .  S
C23          C24   1.403       .  A
C23        C1246   1.477       .  S
C24          H27   1.084       .  S
C28          C29   1.404       .  A
C28          C33   1.404       .  A
C28        C1182   1.477       .  S
C29          C30   1.401       .  A
C29          H34   1.084       .  S
C30          C31   1.400       .  A
C30        C1301   1.473       .  S
C31          C32   1.399       .  A
C31          H35   1.084       .  S
C32          C33   1.400       .  A
C32        C1109   1.473       .  S
C33          H36   1.084       .  S
N37          N38   1.320       .  A
N37          C41   1.339       .  A
N37         Cu45   2.046       .  S
N38          C39   1.346       .  A
N38         Cu44   2.067       .  S
C39          C40   1.384       .  A
C39          H42   1.082       .  S
C40          C41   1.378       .  A
C40        C1077   1.469       .  S
C41          H43   1.082       .  S
Cu44         N47   2.069       .  S
Cu45         N55   2.046   1_554  S
Cu46         N48   2.081       .  S
Cu46         N54   2.079   1_554  S
N47          N48   1.325       .  A
N47          C51   1.344       .  A
N48          C49   1.344       .  A
C49          C50   1.383       .  A
C49          H52   1.082   1_554  S
C50          C51   1.380       .  A
C50          C74   1.468       .  S
C51          H53   1.082       .  S
N54          N55   1.321       .  A
N54          C58   1.348       .  A
N55          C56   1.338       .  A
C56          C57   1.377       .  A
C56          H59   1.082       .  S
C57          C58   1.386       .  A
C57        C1054   1.472       .  S
C58          H60   1.082       .  S
N61          N62   1.321       .  A
N61          C65   1.343       .  A
N61         Cu69   2.064       .  S
N62          C63   1.344       .  A
N62         Cu68   2.062       .  S
C63          C64   1.381       .  A
C63          H66   1.082       .  S
C64          C65   1.382       .  A
C64        C1214   1.471       .  S
C65          H67   1.082       .  S
Cu68         N71   2.062       .  S
Cu69         N79   2.064       .  S
Cu70         N72   2.078       .  S
Cu70         N78   2.078       .  S
N71          N72   1.323       .  A
N71          C75   1.343       .  A
N72          C73   1.346   1_556  A
C73          C74   1.384   1_655  A
C73          H76   1.082       .  S
C74          C75   1.380   1_454  A
C75          H77   1.082       .  S
N78          N79   1.322       .  A
N78          C82   1.346   1_556  A
N79          C80   1.342       .  A
C80          C81   1.381       .  A
C80          H83   1.082       .  S
C81          C82   1.386   1_556  A
C81        C1013   1.478       .  S
C82          H84   1.082       .  S
C85          C86   1.399       .  A
C85          C90   1.400       .  A
C85         C990   1.473       .  S
C86          C87   1.399       .  A
C86          H91   1.084       .  S
C87          C88   1.404       .  A
C87         C949   1.477       .  S
C88          C89   1.404       .  A
C88          H92   1.084       .  S
C89          C90   1.400       .  A
C89         C917   1.479       .  S
C90          H93   1.084       .  S
C94          C95   1.405       .  A
C94          C99   1.402       .  A
C94         C981   1.478       .  S
C95          C96   1.400       .  A
C95         H100   1.084       .  S
C96          C97   1.397       .  A
C96         C862   1.470       .  S
C97          C98   1.400       .  A
C97         H101   1.084       .  S
C98          C99   1.400       .  A
C98         C894   1.478       .  S
C99         H102   1.084       .  S
C103        C104   1.403       .  A
C103        C108   1.406       .  A
C103        C830   1.480       .  S
C104        C105   1.398       .  A
C104        H109   1.084       .  S
C105        C106   1.400       .  A
C105        C789   1.476       .  S
C106        C107   1.403       .  A
C106        H110   1.084       .  S
C107        C108   1.404       .  A
C107        C958   1.483       .  S
C108        H111   1.084       .  S
C112        C113   1.402       .  A
C112        C117   1.404       .  A
C112        C821   1.477       .  S
C113        C114   1.400       .  A
C113        H118   1.084       .  S
C114        C115   1.401       .  A
C114        C885   1.476       .  S
C115        C116   1.400       .  A
C115        H119   1.084       .  S
C116        C117   1.400       .  A
C116       C1045   1.476       .  S
C117        H120   1.084       .  S
N121        N122   1.322       .  A
N121        C125   1.341       .  A
N121       Cu129   2.063       .  S
N122        C123   1.347       .  A
N122       Cu128   2.074       .  S
C123        C124   1.386       .  A
C123        H126   1.081       .  S
C124        C125   1.381       .  A
C124        C853   1.478       .  S
C125        H127   1.082       .  S
Cu128       N131   2.074       .  S
Cu129       N139   2.063       .  S
Cu130       N132   2.061       .  S
Cu130       N138   2.060       .  S
N131        N132   1.323       .  A
N131        C135   1.344       .  A
N132        C133   1.343       .  A
C133        C134   1.379       .  A
C133        H136   1.082       .  S
C134        C135   1.383       .  A
C134        C158   1.466       .  S
C135        H137   1.082       .  S
N138        N139   1.320       .  A
N138        C142   1.343       .  A
N139        C140   1.343       .  A
C140        C141   1.383       .  A
C140        H143   1.082       .  S
C141        C142   1.384       .  A
C141        C757   1.477       .  S
C142        H144   1.082       .  S
N145        N146   1.320       .  A
N145        C149   1.343       .  A
N145       Cu153   2.064       .  S
N146        C147   1.342       .  A
N146       Cu152   2.057       .  S
C147        C148   1.382       .  A
C147        H150   1.082       .  S
C148        C149   1.384       .  A
C148       C1150   1.474       .  S
C149        H151   1.082       .  S
Cu152       N155   2.057       .  S
Cu153       N163   2.064       .  S
Cu154       N156   2.073       .  S
Cu154       N162   2.072       .  S
N155        N156   1.321       .  A
N155        C159   1.342       .  A
N156        C157   1.345       .  A
C157        C158   1.384   1_655  A
C157        H160   1.082       .  S
C158        C159   1.379   1_455  A
C159        H161   1.082       .  S
N162        N163   1.323       .  A
N162        C166   1.345       .  A
N163        C164   1.343       .  A
C164        C165   1.380       .  A
C164        H167   1.082       .  S
C165        C166   1.382       .  A
C165        C725   1.471       .  S
C166        H168   1.082       .  S
C169        C170   1.405       .  A
C169        C174   1.403       .  A
C169        C693   1.479       .  S
C170        C171   1.399       .  A
C170        H175   1.084   1_554  S
C171        C172   1.400       .  A
C171       C1022   1.473       .  S
C172        C173   1.403       .  A
C172        H176   1.084       .  S
C173        C174   1.402       .  A
C173        C661   1.482       .  S
C174        H177   1.083       .  S
C178        C179   1.403       .  A
C178        C183   1.404       .  A
C178        C702   1.477       .  S
C179        C180   1.402       .  A
C179        H184   1.084       .  S
C180        C181   1.402       .  A
C180        C597   1.478       .  S
C181        C182   1.402       .  A
C181        H185   1.084       .  S
C182        C183   1.400       .  A
C182        C629   1.477       .  S
C183        H186   1.084       .  S
C187        C188   1.404       .  A
C187        C192   1.407       .  A
C187        C565   1.484       .  S
C188        C189   1.396       .  A
C188        H193   1.084       .  S
C189        C190   1.398       .  A
C189        C734   1.472       .  S
C190        C191   1.404       .  A
C190        H194   1.084       .  S
C191        C192   1.406       .  A
C191        C670   1.487       .  S
C192        H195   1.083       .  S
C196        C197   1.400       .  A
C196        C201   1.402       .  A
C196        C574   1.474       .  S
C197        C198   1.398       .  A
C197        H202   1.084       .  S
C198        C199   1.401       .  A
C198        C533   1.475       .  S
C199        C200   1.406       .  A
C199        H203   1.084       .  S
C200        C201   1.404       .  A
C200        C638   1.483       .  S
C201        H204   1.084       .  S
N205        N206   1.320       .  A
N205        C209   1.343       .  A
N205       Cu213   2.064       .  S
N206        C207   1.344       .  A
N206       Cu212   2.061       .  S
C207        C208   1.382       .  A
C207        H210   1.082       .  S
C208        C209   1.384       .  A
C208        C606   1.475       .  S
C209        H211   1.082       .  S
Cu212       N215   2.063       .  S
Cu213       N223   2.065       .  S
Cu214       N216   2.084       .  S
Cu214       N222   2.084   1_545  S
N215        N216   1.323       .  A
N215        C219   1.341       .  A
N216        C217   1.348       .  A
C217        C218   1.385       .  A
C217        H220   1.082   1_556  S
C218        C219   1.379       .  A
C218        C242   1.470       .  S
C219        H221   1.082       .  S
N222        N223   1.321   1_565  A
N222        C226   1.347       .  A
N223        C224   1.340   1_545  A
C224        C225   1.386       .  A
C224        H227   1.082   1_565  S
C225        C226   1.393       .  A
C225       C1269   1.493   1_556  S
C226        H228   1.078   1_556  S
N229        N230   1.322   1_545  A
N229        C233   1.344   1_545  A
N229       Cu237   2.071       .  S
N230        C231   1.344       .  A
N230       Cu236   2.070   1_565  S
C231        C232   1.385       .  A
C231        H234   1.082       .  S
C232        C233   1.384       .  A
C232        C798   1.481       .  S
C233        H235   1.082       .  S
Cu236       N239   2.070       .  S
Cu237       N247   2.071       .  S
Cu238       N240   2.071       .  S
Cu238       N246   2.071       .  S
N239        N240   1.322   1_554  A
N239        C243   1.346       .  A
N240        C241   1.343       .  A
C241        C242   1.383       .  A
C241        H244   1.082       .  S
C242        C243   1.383   1_556  A
C243        H245   1.082       .  S
N246        N247   1.322   1_556  A
N246        C250   1.345       .  A
N247        C248   1.344   1_554  A
C248        C249   1.383       .  A
C248        H251   1.082   1_556  S
C249        C250   1.384       .  A
C249        C501   1.477       .  S
C250        H252   1.081       .  S
C253        C254   1.405       .  A
C253        C258   1.403       .  A
C253        C478   1.478       .  S
C254        C255   1.402       .  A
C254        H259   1.084       .  S
C255        C256   1.401       .  A
C255        C446   1.478       .  S
C256        C257   1.395       .  A
C256        H260   1.084       .  S
C257        C258   1.399       .  A
C257       C1086   1.469       .  S
C258        H261   1.084       .  S
C262        C263   1.405       .  A
C262        C267   1.403       .  A
C262        C469   1.479       .  S
C263        C264   1.405       .  A
C263        H268   1.084       .  S
C264        C265   1.403       .  A
C264        C405   1.482       .  S
C265        C266   1.398       .  A
C265        H269   1.084       .  S
C266        C267   1.398       .  A
C266        C510   1.472       .  S
C267        H270   1.084       .  S
C271        C272   1.404       .  A
C271        C276   1.404       .  A
C271        C382   1.482       .  S
C272        C273   1.401       .  A
C272        H277   1.084       .  S
C273        C274   1.402       .  A
C273        C437   1.479       .  S
C274        C275   1.400       .  A
C274        H278   1.084       .  S
C275        C276   1.402       .  A
C275        C766   1.480       .  S
C276        H279   1.084       .  S
C280        C281   1.404       .  A
C280        C285   1.405       .  A
C280        C373   1.479       .  S
C281        C282   1.400       .  A
C281        H286   1.084       .  S
C282        C283   1.401       .  A
C282        C414   1.477       .  S
C283        C284   1.402       .  A
C283        H287   1.084       .  S
C284        C285   1.401       .  A
C284        C341   1.478       .  S
C285        H288   1.084       .  S
N289        N290   1.321       .  A
N289        C293   1.342       .  A
N289       Cu297   2.062       .  S
N290        C291   1.346       .  A
N290       Cu296   2.074       .  S
C291        C292   1.386       .  A
C291        H294   1.082       .  S
C292        C293   1.381       .  A
C292        C542   1.478       .  S
C293        H295   1.082       .  S
Cu296       N299   2.074       .  S
Cu297       N307   2.062       .  S
Cu298       N300   2.071       .  S
Cu298       N306   2.070       .  S
N299        N300   1.323       .  A
N299        C303   1.344       .  A
N300        C301   1.345       .  A
C301        C302   1.382       .  A
C301        H304   1.082       .  S
C302        C303   1.382       .  A
C302        C326   1.469       .  S
C303        H305   1.082       .  S
N306        N307   1.321       .  A
N306        C310   1.345   1_545  A
N307        C308   1.342       .  A
C308        C309   1.382   1_545  A
C308        H311   1.082       .  S
C309        C310   1.385       .  A
C309       C1118   1.477       .  S
C310        H312   1.081       .  S
N313        N314   1.321       .  A
N313        C317   1.341       .  A
N313       Cu321   2.062       .  S
N314        C315   1.348       .  A
N314       Cu320   2.075       .  S
C315        C316   1.385       .  A
C315        H318   1.082       .  S
C316        C317   1.381       .  A
C316        C350   1.475       .  S
C317        H319   1.082       .  S
Cu320       N323   2.076       .  S
Cu321       N331   2.062   1_545  S
Cu322       N324   2.073       .  S
Cu322       N330   2.072   1_545  S
N323        N324   1.324       .  A
N323        C327   1.344       .  A
N324        C325   1.345       .  A
C325        C326   1.382       .  A
C325        H328   1.082       .  S
C326        C327   1.382       .  A
C327        H329   1.082       .  S
N330        N331   1.321       .  A
N330        C334   1.345       .  A
N331        C332   1.342       .  A
C332        C333   1.382       .  A
C332        H335   1.082       .  S
C333        C334   1.386       .  A
C333        C926   1.479       .  S
C334        H336   1.080       .  S
C337        C338   1.400       .  A
C337        C342   1.401       .  A
C337        H347   1.085       .  S
C338        C339   1.411       .  A
C338        C343   1.477       .  S
C339        C340   1.403       .  A
C339        C344   1.506       .  S
C340        C341   1.404       .  A
C340        H345   1.084       .  S
C341        C342   1.415       .  A
C342        C346   1.507       .  S
C343        C348   1.410       .  A
C343        C352   1.399       .  A
C344        H360   1.110       .  S
C344        H361   1.110       .  S
C344        H362   1.111       .  S
C346        H357   1.110       .  S
C346        H358   1.110       .  S
C346        H359   1.108       .  S
C348        C349   1.406       .  A
C348        C353   1.505       .  S
C349        C350   1.405       .  A
C349        H354   1.084       .  S
C350        C351   1.416       .  A
C351        C352   1.398       .  A
C351        C355   1.508       .  S
C352        H356   1.085       .  S
C353        H363   1.111       .  S
C353        H364   1.110       .  S
C353        H365   1.110       .  S
C355        H366   1.111       .  S
C355        H367   1.107       .  S
C355        H368   1.110       .  S
C369        C370   1.402       .  A
C369        C374   1.400       .  A
C369        H379   1.085       .  S
C370        C371   1.412       .  A
C370        C375   1.480       .  S
C371        C372   1.402       .  A
C371        C376   1.507       .  S
C372        C373   1.405       .  A
C372        H377   1.084       .  S
C373        C374   1.416       .  A
C374        C378   1.508       .  S
C375        C380   1.412       .  A
C375        C384   1.401       .  A
C376        H392   1.109       .  S
C376        H393   1.110       .  S
C376        H394   1.111       .  S
C378        H389   1.111       .  S
C378        H390   1.110       .  S
C378        H391   1.107       .  S
C380        C381   1.400       .  A
C380        C385   1.508       .  S
C381        C382   1.404       .  A
C381        H386   1.084       .  S
C382        C383   1.417       .  A
C383        C384   1.401       .  A
C383        C387   1.508       .  S
C384        H388   1.084       .  S
C385        H395   1.111       .  S
C385        H396   1.109       .  S
C385        H397   1.110       .  S
C387        H398   1.110       .  S
C387        H399   1.107       .  S
C387        H400   1.111       .  S
C401        C402   1.401       .  A
C401        C406   1.400       .  A
C401        H411   1.084       .  S
C402        C403   1.413       .  A
C402        C407   1.482       .  S
C403        C404   1.404       .  A
C403        C408   1.507       .  S
C404        C405   1.405       .  A
C404        H409   1.084       .  S
C405        C406   1.417       .  A
C406        C410   1.508       .  S
C407        C412   1.413       .  A
C407        C416   1.402       .  A
C408        H424   1.109       .  S
C408        H425   1.110       .  S
C408        H426   1.111       .  S
C410        H421   1.111       .  S
C410        H422   1.110       .  S
C410        H423   1.107       .  S
C412        C413   1.404       .  A
C412        C417   1.507       .  S
C413        C414   1.403       .  A
C413        H418   1.084       .  S
C414        C415   1.415       .  A
C415        C416   1.400       .  A
C415        C419   1.508       .  S
C416        H420   1.085       .  S
C417        H427   1.111       .  S
C417        H428   1.109       .  S
C417        H429   1.110       .  S
C419        H430   1.110       .  S
C419        H431   1.107       .  S
C419        H432   1.111       .  S
C433        C434   1.400       .  A
C433        C438   1.402       .  A
C433        H443   1.085       .  S
C434        C435   1.411       .  A
C434        C439   1.472       .  S
C435        C436   1.398       .  A
C435        C440   1.510       .  S
C436        C437   1.405       .  A
C436        H441   1.084       .  S
C437        C438   1.417       .  A
C438        C442   1.507       .  S
C439        C444   1.409       .  A
C439        C448   1.398       .  A
C440        H456   1.110       .  S
C440        H457   1.108       .  S
C440        H458   1.111       .  S
C442        H453   1.110       .  S
C442        H454   1.111       .  S
C442        H455   1.105       .  S
C444        C445   1.403       .  A
C444        C449   1.507       .  S
C445        C446   1.406       .  A
C445        H450   1.084       .  S
C446        C447   1.416       .  A
C447        C448   1.397       .  A
C447        C451   1.508       .  S
C448        H452   1.085       .  S
C449        H459   1.111       .  S
C449        H460   1.110       .  S
C449        H461   1.108       .  S
C451        H462   1.111       .  S
C451        H463   1.108       .  S
C451        H464   1.110       .  S
C465        C466   1.399       .  A
C465        C470   1.400       .  A
C465        H475   1.085       .  S
C466        C467   1.409       .  A
C466        C471   1.476   1_556  S
C467        C468   1.403       .  A
C467        C472   1.506       .  S
C468        C469   1.405       .  A
C468        H473   1.084       .  S
C469        C470   1.417       .  A
C470        C474   1.508       .  S
C471        C476   1.410   1_554  A
C471        C480   1.400       .  A
C472        H488   1.110       .  S
C472        H489   1.110       .  S
C472        H490   1.111       .  S
C474        H485   1.111       .  S
C474        H486   1.110       .  S
C474        H487   1.107       .  S
C476        C477   1.401   1_556  A
C476        C481   1.506       .  S
C477        C478   1.404       .  A
C477        H482   1.084       .  S
C478        C479   1.417       .  A
C479        C480   1.401       .  A
C479        C483   1.508       .  S
C480        H484   1.085       .  S
C481        H491   1.111       .  S
C481        H492   1.110       .  S
C481        H493   1.110       .  S
C483        H494   1.110       .  S
C483        H495   1.107       .  S
C483        H496   1.111       .  S
C497        C498   1.401       .  A
C497        C502   1.403       .  A
C497        H507   1.084       .  S
C498        C499   1.411       .  A
C498        C503   1.480       .  S
C499        C500   1.402       .  A
C499        C504   1.507   1_556  S
C500        C501   1.403       .  A
C500        H505   1.084   1_556  S
C501        C502   1.415       .  A
C502        C506   1.507       .  S
C503        C508   1.412       .  A
C503        C512   1.403       .  A
C504        H520   1.109       .  S
C504        H521   1.110       .  S
C504        H522   1.111       .  S
C506        H517   1.111       .  S
C506        H518   1.110       .  S
C506        H519   1.108       .  S
C508        C509   1.403       .  A
C508        C513   1.506       .  S
C509        C510   1.402       .  A
C509        H514   1.084       .  S
C510        C511   1.410       .  A
C511        C512   1.401       .  A
C511        C515   1.506       .  S
C512        H516   1.084       .  S
C513        H523   1.111       .  S
C513        H524   1.109       .  S
C513        H525   1.110       .  S
C515        H526   1.110       .  S
C515        H527   1.109       .  S
C515        H528   1.111       .  S
C529        C530   1.401       .  A
C529        C534   1.401       .  A
C529        H539   1.085       .  S
C530        C531   1.409       .  A
C530        C535   1.476       .  S
C531        C532   1.402       .  A
C531        C536   1.506       .  S
C532        C533   1.403       .  A
C532        H537   1.084       .  S
C533        C534   1.415       .  A
C534        C538   1.508       .  S
C535        C540   1.408       .  A
C535        C544   1.399       .  A
C536        H552   1.110       .  S
C536        H553   1.109       .  S
C536        H554   1.111       .  S
C538        H549   1.110       .  S
C538        H550   1.110       .  S
C538        H551   1.108       .  S
C540        C541   1.402       .  A
C540        C545   1.507       .  S
C541        C542   1.406       .  A
C541        H546   1.084       .  S
C542        C543   1.418       .  A
C543        C544   1.402       .  A
C543        C547   1.508       .  S
C544        H548   1.085       .  S
C545        H555   1.111       .  S
C545        H556   1.110       .  S
C545        H557   1.109       .  S
C547        H558   1.111       .  S
C547        H559   1.104       .  S
C547        H560   1.110       .  S
C561        C562   1.400       .  A
C561        C566   1.402       .  A
C561        H571   1.085       .  S
C562        C563   1.407       .  A
C562        C567   1.474       .  S
C563        C564   1.400       .  A
C563        C568   1.507       .  S
C564        C565   1.408       .  A
C564        H569   1.084       .  S
C565        C566   1.419       .  A
C566        C570   1.508       .  S
C567        C572   1.410       .  A
C567        C576   1.400       .  A
C568        H584   1.110       .  S
C568        H585   1.109       .  S
C568        H586   1.111       .  S
C570        H581   1.110       .  S
C570        H582   1.111       .  S
C570        H583   1.106       .  S
C572        C573   1.402       .  A
C572        C577   1.506       .  S
C573        C574   1.403       .  A
C573        H578   1.084       .  S
C574        C575   1.414       .  A
C575        C576   1.400       .  A
C575        C579   1.508       .  S
C576        H580   1.084       .  S
C577        H587   1.111       .  S
C577        H588   1.110       .  S
C577        H589   1.109       .  S
C579        H590   1.111       .  S
C579        H591   1.111       .  S
C579        H592   1.109       .  S
C593        C594   1.398       .  A
C593        C598   1.399       .  A
C593        H603   1.085       .  S
C594        C595   1.410       .  A
C594        C599   1.475       .  S
C595        C596   1.404       .  A
C595        C600   1.506       .  S
C596        C597   1.404       .  A
C596        H601   1.084       .  S
C597        C598   1.417       .  A
C598        C602   1.506       .  S
C599        C604   1.409       .  A
C599        C608   1.399       .  A
C600        H616   1.110       .  S
C600        H617   1.110       .  S
C600        H618   1.111       .  S
C602        H613   1.110       .  S
C602        H614   1.111       .  S
C602        H615   1.104       .  S
C604        C605   1.404       .  A
C604        C609   1.506       .  S
C605        C606   1.405       .  A
C605        H610   1.084       .  S
C606        C607   1.416       .  A
C607        C608   1.399       .  A
C607        C611   1.508       .  S
C608        H612   1.085       .  S
C609        H619   1.111       .  S
C609        H620   1.110       .  S
C609        H621   1.110       .  S
C611        H622   1.110       .  S
C611        H623   1.106       .  S
C611        H624   1.111       .  S
C625        C626   1.400       .  A
C625        C630   1.396       .  A
C625        H635   1.085       .  S
C626        C627   1.411       .  A
C626        C631   1.479       .  S
C627        C628   1.407       .  A
C627        C632   1.505       .  S
C628        C629   1.404       .  A
C628        H633   1.084       .  S
C629        C630   1.414       .  A
C630        C634   1.507       .  S
C631        C636   1.411       .  A
C631        C640   1.401       .  A
C632        H648   1.109       .  S
C632        H649   1.110       .  S
C632        H650   1.111       .  S
C634        H645   1.111       .  S
C634        H646   1.110       .  S
C634        H647   1.106       .  S
C636        C637   1.401       .  A
C636        C641   1.507       .  S
C637        C638   1.405       .  A
C637        H642   1.084       .  S
C638        C639   1.417       .  A
C639        C640   1.402       .  A
C639        C643   1.507       .  S
C640        H644   1.084       .  S
C641        H651   1.111       .  S
C641        H652   1.109       .  S
C641        H653   1.110       .  S
C643        H654   1.110       .  S
C643        H655   1.108       .  S
C643        H656   1.111       .  S
C657        C658   1.400       .  A
C657        C662   1.404       .  A
C657        H667   1.084       .  S
C658        C659   1.410       .  A
C658        C663   1.477       .  S
C659        C660   1.400       .  A
C659        C664   1.508       .  S
C660        C661   1.404       .  A
C660        H665   1.084       .  S
C661        C662   1.417       .  A
C662        C666   1.508       .  S
C663        C668   1.409       .  A
C663        C672   1.399       .  A
C664        H680   1.110       .  S
C664        H681   1.108       .  S
C664        H682   1.111       .  S
C666        H677   1.107       .  S
C666        H678   1.111       .  S
C666        H679   1.110       .  S
C668        C669   1.402       .  A
C668        C673   1.507       .  S
C669        C670   1.407       .  A
C669        H674   1.084       .  S
C670        C671   1.420       .  A
C671        C672   1.401       .  A
C671        C675   1.508       .  S
C672        H676   1.085       .  S
C673        H683   1.111       .  S
C673        H684   1.110       .  S
C673        H685   1.108       .  S
C675        H686   1.111       .  S
C675        H687   1.107       .  S
C675        H688   1.110       .  S
C689        C690   1.401       .  A
C689        C694   1.400       .  A
C689        H699   1.085       .  S
C690        C691   1.411   1_556  A
C690        C695   1.479       .  S
C691        C692   1.402       .  A
C691        C696   1.507       .  S
C692        C693   1.405       .  A
C692        H697   1.084       .  S
C693        C694   1.416   1_554  A
C694        C698   1.508       .  S
C695        C700   1.412       .  A
C695        C704   1.401       .  A
C696        H712   1.109   1_554  S
C696        H713   1.110       .  S
C696        H714   1.111       .  S
C698        H709   1.111   1_556  S
C698        H710   1.110       .  S
C698        H711   1.107   1_556  S
C700        C701   1.404       .  A
C700        C705   1.507       .  S
C701        C702   1.403       .  A
C701        H706   1.084       .  S
C702        C703   1.414       .  A
C703        C704   1.401       .  A
C703        C707   1.508       .  S
C704        H708   1.084       .  S
C705        H715   1.111       .  S
C705        H716   1.109       .  S
C705        H717   1.110   1_556  S
C707        H718   1.108       .  S
C707        H719   1.110       .  S
C707        H720   1.111       .  S
C721        C722   1.400       .  A
C721        C726   1.400       .  A
C721        H731   1.085       .  S
C722        C723   1.409       .  A
C722        C727   1.475       .  S
C723        C724   1.402       .  A
C723        C728   1.506       .  S
C724        C725   1.404       .  A
C724        H729   1.084       .  S
C725        C726   1.414       .  A
C726        C730   1.507       .  S
C727        C732   1.410       .  A
C727        C736   1.400       .  A
C728        H744   1.110       .  S
C728        H745   1.110       .  S
C728        H746   1.111       .  S
C730        H741   1.110       .  S
C730        H742   1.111       .  S
C730        H743   1.108       .  S
C732        C733   1.401       .  A
C732        C737   1.506       .  S
C733        C734   1.402       .  A
C733        H738   1.084       .  S
C734        C735   1.413       .  A
C735        C736   1.401       .  A
C735        C739   1.507       .  S
C736        H740   1.084       .  S
C737        H747   1.111       .  S
C737        H748   1.110       .  S
C737        H749   1.110       .  S
C739        H750   1.110       .  S
C739        H751   1.108       .  S
C739        H752   1.110       .  S
C753        C754   1.398       .  A
C753        C758   1.402       .  A
C753        H763   1.085       .  S
C754        C755   1.409       .  A
C754        C759   1.474       .  S
C755        C756   1.400       .  A
C755        C760   1.507       .  S
C756        C757   1.404       .  A
C756        H761   1.084       .  S
C757        C758   1.419       .  A
C758        C762   1.508       .  S
C759        C764   1.408       .  A
C759        C768   1.398       .  A
C760        H776   1.110       .  S
C760        H777   1.110       .  S
C760        H778   1.111       .  S
C762        H773   1.110       .  S
C762        H774   1.111       .  S
C762        H775   1.105       .  S
C764        C765   1.402       .  A
C764        C769   1.506       .  S
C765        C766   1.405       .  A
C765        H770   1.084       .  S
C766        C767   1.420       .  A
C767        C768   1.399       .  A
C767        C771   1.510       .  S
C768        H772   1.085       .  S
C769        H779   1.111       .  S
C769        H780   1.110       .  S
C769        H781   1.110       .  S
C771        H782   1.110       .  S
C771        H783   1.105       .  S
C771        H784   1.111       .  S
C785        C786   1.400       .  A
C785        C790   1.399       .  A
C785        H795   1.085       .  S
C786        C787   1.410       .  A
C786        C791   1.477       .  S
C787        C788   1.403       .  A
C787        C792   1.506       .  S
C788        C789   1.405       .  A
C788        H793   1.084       .  S
C789        C790   1.415       .  A
C790        C794   1.508       .  S
C791        C796   1.408       .  A
C791        C800   1.399       .  A
C792        H808   1.110       .  S
C792        H809   1.110       .  S
C792        H810   1.111       .  S
C794        H805   1.111       .  S
C794        H806   1.110       .  S
C794        H807   1.107       .  S
C796        C797   1.401       .  A
C796        C801   1.507       .  S
C797        C798   1.406       .  A
C797        H802   1.084       .  S
C798        C799   1.419       .  A
C799        C800   1.402       .  A
C799        C803   1.508       .  S
C800        H804   1.085       .  S
C801        H811   1.111       .  S
C801        H812   1.110       .  S
C801        H813   1.110       .  S
C803        H814   1.111       .  S
C803        H815   1.105       .  S
C803        H816   1.110       .  S
C817        C818   1.399       .  A
C817        C822   1.400   1_554  A
C817        H827   1.085       .  S
C818        C819   1.409   1_554  A
C818        C823   1.474       .  S
C819        C820   1.401       .  A
C819        C824   1.507       .  S
C820        C821   1.404       .  A
C820        H825   1.084       .  S
C821        C822   1.417       .  A
C822        C826   1.508       .  S
C823        C828   1.409       .  A
C823        C832   1.399       .  A
C824        H840   1.110       .  S
C824        H841   1.110   1_556  S
C824        H842   1.111       .  S
C826        H837   1.110   1_556  S
C826        H838   1.111       .  S
C826        H839   1.107       .  S
C828        C829   1.401       .  A
C828        C833   1.507       .  S
C829        C830   1.405       .  A
C829        H834   1.084       .  S
C830        C831   1.418       .  A
C831        C832   1.401       .  A
C831        C835   1.508       .  S
C832        H836   1.085       .  S
C833        H843   1.111       .  S
C833        H844   1.110       .  S
C833        H845   1.110       .  S
C835        H846   1.111       .  S
C835        H847   1.107       .  S
C835        H848   1.110       .  S
C849        C850   1.400       .  A
C849        C854   1.404       .  A
C849        H859   1.084       .  S
C850        C851   1.408       .  A
C850        C855   1.475       .  S
C851        C852   1.400       .  A
C851        C856   1.507       .  S
C852        C853   1.404       .  A
C852        H857   1.084       .  S
C853        C854   1.416       .  A
C854        C858   1.507       .  S
C855        C860   1.410       .  A
C855        C864   1.400       .  A
C856        H872   1.110       .  S
C856        H873   1.110       .  S
C856        H874   1.111       .  S
C858        H869   1.111       .  S
C858        H870   1.110       .  S
C858        H871   1.108       .  S
C860        C861   1.404       .  A
C860        C865   1.505       .  S
C861        C862   1.402       .  A
C861        H866   1.084       .  S
C862        C863   1.411       .  A
C863        C864   1.399       .  A
C863        C867   1.508       .  S
C864        H868   1.084       .  S
C865        H875   1.111       .  S
C865        H876   1.110       .  S
C865        H877   1.109       .  S
C867        H878   1.110       .  S
C867        H879   1.110       .  S
C867        H880   1.111       .  S
C881        C882   1.399       .  A
C881        C886   1.398       .  A
C881        H891   1.085       .  S
C882        C883   1.409       .  A
C882        C887   1.470       .  S
C883        C884   1.400       .  A
C883        C888   1.507       .  S
C884        C885   1.405       .  A
C884        H889   1.084       .  S
C885        C886   1.416       .  A
C886        C890   1.508       .  S
C887        C892   1.409       .  A
C887        C896   1.399       .  A
C888        H904   1.110       .  S
C888        H905   1.109       .  S
C888        H906   1.111       .  S
C890        H901   1.110       .  S
C890        H902   1.111       .  S
C890        H903   1.107       .  S
C892        C893   1.397       .  A
C892        C897   1.509       .  S
C893        C894   1.405       .  A
C893        H898   1.084       .  S
C894        C895   1.419       .  A
C895        C896   1.401       .  A
C895        C899   1.509       .  S
C896        H900   1.085       .  S
C897        H907   1.111       .  S
C897        H908   1.110       .  S
C897        H909   1.108       .  S
C899        H910   1.111       .  S
C899        H911   1.106       .  S
C899        H912   1.110       .  S
C913        C914   1.400       .  A
C913        C918   1.405       .  A
C913        H923   1.084       .  S
C914        C915   1.410       .  A
C914        C919   1.477       .  S
C915        C916   1.400       .  A
C915        C920   1.507       .  S
C916        C917   1.402       .  A
C916        H921   1.084       .  S
C917        C918   1.416       .  A
C918        C922   1.508       .  S
C919        C924   1.409       .  A
C919        C928   1.399       .  A
C920        H936   1.110       .  S
C920        H937   1.110       .  S
C920        H938   1.111       .  S
C922        H933   1.108       .  S
C922        H934   1.111       .  S
C922        H935   1.110       .  S
C924        C925   1.403       .  A
C924        C929   1.506       .  S
C925        C926   1.405       .  A
C925        H930   1.084       .  S
C926        C927   1.417       .  A
C927        C928   1.403       .  A
C927        C931   1.507       .  S
C928        H932   1.084       .  S
C929        H939   1.111       .  S
C929        H940   1.110       .  S
C929        H941   1.110       .  S
C931        H942   1.111       .  S
C931        H943   1.108       .  S
C931        H944   1.110       .  S
C945        C946   1.401       .  A
C945        C950   1.401       .  A
C945        H955   1.085       .  S
C946        C947   1.409       .  A
C946        C951   1.477       .  S
C947        C948   1.402       .  A
C947        C952   1.506       .  S
C948        C949   1.404       .  A
C948        H953   1.084       .  S
C949        C950   1.416       .  A
C950        C954   1.508       .  S
C951        C956   1.410       .  A
C951        C960   1.399       .  A
C952        H968   1.110       .  S
C952        H969   1.110       .  S
C952        H970   1.111       .  S
C954        H965   1.111       .  S
C954        H966   1.110       .  S
C954        H967   1.107       .  S
C956        C957   1.404       .  A
C956        C961   1.506       .  S
C957        C958   1.406       .  A
C957        H962   1.084       .  S
C958        C959   1.417       .  A
C959        C960   1.400       .  A
C959        C963   1.508       .  S
C960        H964   1.085       .  S
C961        H971   1.111       .  S
C961        H972   1.110       .  S
C961        H973   1.110       .  S
C963        H974   1.110       .  S
C963        H975   1.108       .  S
C963        H976   1.111       .  S
C977        C978   1.401       .  A
C977        C982   1.402       .  A
C977        H987   1.085       .  S
C978        C979   1.408       .  A
C978        C983   1.473       .  S
C979        C980   1.397       .  A
C979        C984   1.508       .  S
C980        C981   1.405       .  A
C980        H985   1.084       .  S
C981        C982   1.416       .  A
C982        C986   1.507       .  S
C983        C988   1.410       .  A
C983        C992   1.400       .  A
C984       H1000   1.109       .  S
C984       H1001   1.110       .  S
C984       H1002   1.111       .  S
C986        H997   1.111       .  S
C986        H998   1.110       .  S
C986        H999   1.107       .  S
C988        C989   1.400       .  A
C988        C993   1.506       .  S
C989        C990   1.403       .  A
C989        H994   1.084       .  S
C990        C991   1.414       .  A
C991        C992   1.400       .  A
C991        C995   1.508       .  S
C992        H996   1.084       .  S
C993       H1003   1.111       .  S
C993       H1004   1.110       .  S
C993       H1005   1.110       .  S
C995       H1006   1.108       .  S
C995       H1007   1.110       .  S
C995       H1008   1.111       .  S
C1009      C1010   1.400       .  A
C1009      C1014   1.402       .  A
C1009      H1019   1.085       .  S
C1010      C1011   1.408   1_554  A
C1010      C1015   1.477       .  S
C1011      C1012   1.403       .  A
C1011      C1016   1.506       .  S
C1012      C1013   1.406       .  A
C1012      H1017   1.084       .  S
C1013      C1014   1.417   1_556  A
C1014      C1018   1.508       .  S
C1015      C1020   1.410       .  A
C1015      C1024   1.400       .  A
C1016      H1032   1.110       .  S
C1016      H1033   1.110       .  S
C1016      H1034   1.111       .  S
C1018      H1029   1.110       .  S
C1018      H1030   1.111       .  S
C1018      H1031   1.105       .  S
C1020      C1021   1.405       .  A
C1020      C1025   1.505   1_554  S
C1021      C1022   1.403       .  A
C1021      H1026   1.084       .  S
C1022      C1023   1.414       .  A
C1023      C1024   1.399       .  A
C1023      C1027   1.508       .  S
C1024      H1028   1.085       .  S
C1025      H1035   1.111       .  S
C1025      H1036   1.110   1_556  S
C1025      H1037   1.110       .  S
C1027      H1038   1.110       .  S
C1027      H1039   1.108       .  S
C1027      H1040   1.110       .  S
C1041      C1042   1.399       .  A
C1041      C1046   1.400       .  A
C1041      H1051   1.085       .  S
C1042      C1043   1.410       .  A
C1042      C1047   1.475       .  S
C1043      C1044   1.402       .  A
C1043      C1048   1.506       .  S
C1044      C1045   1.403       .  A
C1044      H1049   1.084       .  S
C1045      C1046   1.416       .  A
C1046      C1050   1.507       .  S
C1047      C1052   1.410       .  A
C1047      C1056   1.399       .  A
C1048      H1064   1.110       .  S
C1048      H1065   1.110   1_556  S
C1048      H1066   1.111       .  S
C1050      H1061   1.111       .  S
C1050      H1062   1.110       .  S
C1050      H1063   1.107       .  S
C1052      C1053   1.403   1_556  A
C1052      C1057   1.506   1_556  S
C1053      C1054   1.402   1_554  A
C1053      H1058   1.084       .  S
C1054      C1055   1.414       .  A
C1055      C1056   1.400       .  A
C1055      C1059   1.508       .  S
C1056      H1060   1.084       .  S
C1057      H1067   1.111       .  S
C1057      H1068   1.110       .  S
C1057      H1069   1.110       .  S
C1059      H1070   1.111       .  S
C1059      H1071   1.110       .  S
C1059      H1072   1.108       .  S
C1073      C1074   1.399       .  A
C1073      C1078   1.398       .  A
C1073      H1083   1.085       .  S
C1074      C1075   1.410       .  A
C1074      C1079   1.473       .  S
C1075      C1076   1.402       .  A
C1075      C1080   1.506       .  S
C1076      C1077   1.403       .  A
C1076      H1081   1.084       .  S
C1077      C1078   1.415       .  A
C1078      C1082   1.508   1_554  S
C1079      C1084   1.410       .  A
C1079      C1088   1.400       .  A
C1080      H1096   1.110       .  S
C1080      H1097   1.110       .  S
C1080      H1098   1.111       .  S
C1082      H1093   1.111       .  S
C1082      H1094   1.110       .  S
C1082      H1095   1.107       .  S
C1084      C1085   1.402       .  A
C1084      C1089   1.506       .  S
C1085      C1086   1.401       .  A
C1085      H1090   1.084       .  S
C1086      C1087   1.411       .  A
C1087      C1088   1.400       .  A
C1087      C1091   1.507       .  S
C1088      H1092   1.084       .  S
C1089      H1099   1.111       .  S
C1089      H1100   1.110       .  S
C1089      H1101   1.110       .  S
C1091      H1102   1.110       .  S
C1091      H1103   1.110       .  S
C1091      H1104   1.111       .  S
C1105      C1106   1.401       .  A
C1105      C1110   1.399       .  A
C1105      H1115   1.085       .  S
C1106      C1107   1.411       .  A
C1106      C1111   1.478       .  S
C1107      C1108   1.403       .  A
C1107      C1112   1.506       .  S
C1108      C1109   1.403       .  A
C1108      H1113   1.084       .  S
C1109      C1110   1.415       .  A
C1110      C1114   1.509       .  S
C1111      C1116   1.410       .  A
C1111      C1120   1.401       .  A
C1112      H1128   1.110       .  S
C1112      H1129   1.110       .  S
C1112      H1130   1.111       .  S
C1114      H1125   1.111       .  S
C1114      H1126   1.110       .  S
C1114      H1127   1.108       .  S
C1116      C1117   1.400       .  A
C1116      C1121   1.507       .  S
C1117      C1118   1.403       .  A
C1117      H1122   1.084       .  S
C1118      C1119   1.415       .  A
C1119      C1120   1.404       .  A
C1119      C1123   1.507       .  S
C1120      H1124   1.084       .  S
C1121      H1131   1.111       .  S
C1121      H1132   1.109       .  S
C1121      H1133   1.110       .  S
C1123      H1134   1.111       .  S
C1123      H1135   1.110       .  S
C1123      H1136   1.108       .  S
C1137      C1138   1.402       .  A
C1137      C1142   1.401       .  A
C1137      H1147   1.084       .  S
C1138      C1139   1.410       .  A
C1138      C1143   1.473       .  S
C1139      C1140   1.399       .  A
C1139      C1144   1.507       .  S
C1140      C1141   1.400       .  A
C1140      H1145   1.084       .  S
C1141      C1142   1.412       .  A
C1142      C1146   1.507       .  S
C1143      C1148   1.408       .  A
C1143      C1152   1.399       .  A
C1144      H1160   1.109       .  S
C1144      H1161   1.110       .  S
C1144      H1162   1.111       .  S
C1146      H1157   1.110       .  S
C1146      H1158   1.110       .  S
C1146      H1159   1.108       .  S
C1148      C1149   1.401       .  A
C1148      C1153   1.506       .  S
C1149      C1150   1.406       .  A
C1149      H1154   1.084       .  S
C1150      C1151   1.416       .  A
C1151      C1152   1.399       .  A
C1151      C1155   1.508       .  S
C1152      H1156   1.085       .  S
C1153      H1163   1.111       .  S
C1153      H1164   1.110       .  S
C1153      H1165   1.110       .  S
C1155      H1166   1.110       .  S
C1155      H1167   1.106       .  S
C1155      H1168   1.111       .  S
C1169      C1170   1.399       .  A
C1169      C1174   1.401       .  A
C1169      H1179   1.085       .  S
C1170      C1171   1.409       .  A
C1170      C1175   1.475       .  S
C1171      C1172   1.401       .  A
C1171      C1176   1.506       .  S
C1172      C1173   1.405       .  A
C1172      H1177   1.084       .  S
C1173      C1174   1.420       .  A
C1174      C1178   1.509       .  S
C1175      C1180   1.409       .  A
C1175      C1184   1.400       .  A
C1176      H1192   1.110       .  S
C1176      H1193   1.110       .  S
C1176      H1194   1.111       .  S
C1178      H1189   1.111       .  S
C1178      H1190   1.110       .  S
C1178      H1191   1.106       .  S
C1180      C1181   1.400       .  A
C1180      C1185   1.507       .  S
C1181      C1182   1.404       .  A
C1181      H1186   1.084       .  S
C1182      C1183   1.416       .  A
C1183      C1184   1.402       .  A
C1183      C1187   1.508       .  S
C1184      H1188   1.084       .  S
C1185      H1195   1.111       .  S
C1185      H1196   1.110       .  S
C1185      H1197   1.110       .  S
C1187      H1198   1.110       .  S
C1187      H1199   1.107       .  S
C1187      H1200   1.110       .  S
C1201      C1202   1.400       .  A
C1201      C1206   1.402       .  A
C1201      H1211   1.085       .  S
C1202      C1203   1.409       .  A
C1202      C1207   1.475       .  S
C1203      C1204   1.401       .  A
C1203      C1208   1.507       .  S
C1204      C1205   1.405       .  A
C1204      H1209   1.084       .  S
C1205      C1206   1.417       .  A
C1206      C1210   1.508       .  S
C1207      C1212   1.408       .  A
C1207      C1216   1.400       .  A
C1208      H1224   1.110       .  S
C1208      H1225   1.110       .  S
C1208      H1226   1.111       .  S
C1210      H1221   1.110       .  S
C1210      H1222   1.111       .  S
C1210      H1223   1.106       .  S
C1212      C1213   1.403       .  A
C1212      C1217   1.506       .  S
C1213      C1214   1.404       .  A
C1213      H1218   1.084       .  S
C1214      C1215   1.414       .  A
C1215      C1216   1.400       .  A
C1215      C1219   1.508       .  S
C1216      H1220   1.085       .  S
C1217      H1227   1.111   1_556  S
C1217      H1228   1.110   1_556  S
C1217      H1229   1.110       .  S
C1219      H1230   1.110       .  S
C1219      H1231   1.107       .  S
C1219      H1232   1.111       .  S
C1233      C1234   1.401       .  A
C1233      C1238   1.401       .  A
C1233      H1243   1.084       .  S
C1234      C1235   1.411       .  A
C1234      C1239   1.478       .  S
C1235      C1236   1.401       .  A
C1235      C1240   1.507       .  S
C1236      C1237   1.404       .  A
C1236      H1241   1.084       .  S
C1237      C1238   1.415       .  A
C1238      C1242   1.508       .  S
C1239      C1244   1.411       .  A
C1239      C1248   1.401       .  A
C1240      H1256   1.109       .  S
C1240      H1257   1.110       .  S
C1240      H1258   1.111       .  S
C1242      H1253   1.111       .  S
C1242      H1254   1.110       .  S
C1242      H1255   1.108       .  S
C1244      C1245   1.404       .  A
C1244      C1249   1.506       .  S
C1245      C1246   1.404       .  A
C1245      H1250   1.084       .  S
C1246      C1247   1.415       .  A
C1247      C1248   1.398       .  A
C1247      C1251   1.509       .  S
C1248      H1252   1.085       .  S
C1249      H1259   1.111       .  S
C1249      H1260   1.109       .  S
C1249      H1261   1.110       .  S
C1251      H1262   1.110       .  S
C1251      H1263   1.108       .  S
C1251      H1264   1.111       .  S
C1265      C1266   1.399       .  A
C1265      C1270   1.406       .  A
C1265      H1275   1.084       .  S
C1266      C1267   1.406       .  A
C1266      C1271   1.477       .  S
C1267      C1268   1.400   1_554  A
C1267      C1272   1.507   1_554  S
C1268      C1269   1.409   1_556  A
C1268      H1273   1.083       .  S
C1269      C1270   1.422       .  A
C1270      C1274   1.505       .  S
C1271      C1276   1.410       .  A
C1271      C1280   1.401       .  A
C1272      H1288   1.110       .  S
C1272      H1289   1.110   1_556  S
C1272      H1290   1.111       .  S
C1274      H1285   1.110       .  S
C1274      H1286   1.111       .  S
C1274      H1287   1.108       .  S
C1276      C1277   1.400       .  A
C1276      C1281   1.507       .  S
C1277      C1278   1.403       .  A
C1277      H1282   1.084       .  S
C1278      C1279   1.416       .  A
C1279      C1280   1.403       .  A
C1279      C1283   1.507       .  S
C1280      H1284   1.084       .  S
C1281      H1291   1.111       .  S
C1281      H1292   1.110       .  S
C1281      H1293   1.110       .  S
C1283      H1294   1.111       .  S
C1283      H1295   1.107       .  S
C1283      H1296   1.110       .  S
C1297      C1298   1.400       .  A
C1297      C1302   1.399       .  A
C1297      H1307   1.085       .  S
C1298      C1299   1.409       .  A
C1298      C1303   1.474       .  S
C1299      C1300   1.402       .  A
C1299      C1304   1.506       .  S
C1300      C1301   1.403       .  A
C1300      H1305   1.084       .  S
C1301      C1302   1.414       .  A
C1302      C1306   1.508       .  S
C1303      C1308   1.408       .  A
C1303      C1312   1.400       .  A
C1304      H1320   1.110       .  S
C1304      H1321   1.110       .  S
C1304      H1322   1.111       .  S
C1306      H1317   1.110       .  S
C1306      H1318   1.110       .  S
C1306      H1319   1.108       .  S
C1308      C1309   1.402       .  A
C1308      C1313   1.506       .  S
C1309      C1310   1.406       .  A
C1309      H1314   1.084       .  S
C1310      C1311   1.416       .  A
C1311      C1312   1.399       .  A
C1311      C1315   1.508       .  S
C1312      H1316   1.085       .  S
C1313      H1323   1.111       .  S
C1313      H1324   1.110       .  S
C1313      H1325   1.110       .  S
C1315      H1326   1.110       .  S
C1315      H1327   1.107       .  S
C1315      H1328   1.110       .  S
C1329      C1330   1.401       .  A
C1329      C1334   1.403       .  A
C1329      H1339   1.084   1_556  S
C1330      C1331   1.409       .  A
C1330      C1335   1.475   1_556  S
C1331      C1332   1.399       .  A
C1331      C1336   1.507       .  S
C1332      C1333   1.405       .  A
C1332      H1337   1.084       .  S
C1333      C1334   1.416       .  A
C1334      C1338   1.507       .  S
C1335      C1340   1.408       .  A
C1335      C1344   1.400       .  A
C1336      H1352   1.110       .  S
C1336      H1353   1.110       .  S
C1336      H1354   1.111       .  S
C1338      H1349   1.110       .  S
C1338      H1350   1.110       .  S
C1338      H1351   1.107       .  S
C1340      C1341   1.398       .  A
C1340      C1345   1.507       .  S
C1341      C1342   1.404       .  A
C1341      H1346   1.084       .  S
C1342      C1343   1.418       .  A
C1343      C1344   1.404       .  A
C1343      C1347   1.508       .  S
C1344      H1348   1.084   1_554  S
C1345      H1355   1.111       .  S
C1345      H1356   1.110       .  S
C1345      H1357   1.110       .  S
C1347      H1358   1.111       .  S
C1347      H1359   1.107       .  S
C1347      H1360   1.110       .  S
