geometry optimzed in LAMMPS
_audit_creation_date              2020-11-30 
_audit_creation_method            'lammps2cif' 
_symmetry_space_group_name_H-M    'P1' 
_symmetry_Int_Tables_number       1 
_symmetry_cell_setting            triclinic 
loop_ 
_symmetry_equiv_pos_as_xyz 
  x,y,z 
_cell_length_a                    32.72867846 
_cell_length_b                    32.065293757067295 
_cell_length_c                    48.450655333863224 
_cell_angle_alpha                 89.80032049064863 
_cell_angle_beta                  89.67029441376931 
_cell_angle_gamma                 120.9639892837851 
loop_ 
_atom_site_label 
_atom_site_type_symbol 
_atom_site_fract_x 
_atom_site_fract_y 
_atom_site_fract_z 
_atom_site_charge 
C1          C  0.32745855  0.16470359  0.35000036     0.46100
H2          H  0.32850941  0.16563616  0.32708253    -0.02900
C3          C  0.32533844  0.16258497  0.40365710     0.46200
H4          H  0.32530309  0.16208098  0.42657969    -0.02900
C5          C  0.35146765  0.21564274  0.36300132    -0.16600
C6          C  0.27648704  0.13867474  0.36219642    -0.16400
C7          C  0.35201741  0.13898081  0.36284723    -0.16700
C8          C  0.35092987  0.21434861  0.39139951    -0.16700
C9          C  0.27539882  0.13589495  0.39066443    -0.16300
C10         C  0.35110825  0.13854360  0.39115576    -0.16600
C11         C  0.16332538  0.33832077  0.15209432     0.46100
H12         H  0.16073293  0.33596299  0.17494732    -0.02900
C13         C  0.16729784  0.34270414  0.09843998     0.46200
H14         H  0.16847698  0.34414352  0.07553964    -0.02900
C15         C  0.21459881  0.36525080  0.14056061    -0.16600
C16         C  0.13902823  0.28842611  0.13804999    -0.16400
C17         C  0.13960583  0.36473090  0.13983303    -0.16700
C18         C  0.21669769  0.36768667  0.11207674    -0.16700
C19         C  0.14109894  0.29041829  0.10976569    -0.16300
C20         C  0.14169898  0.36708046  0.11143474    -0.16600
O21         O  0.48227413  0.40440207  0.46822356    -0.77800
C22         C  0.10288836  0.05131203  0.45672180     0.83200
O23         O  0.03837761  0.47399984  0.05673771    -0.79000
O24         O  0.05730785  0.11974436  0.01726257    -0.80400
O25         O  0.41893240  0.01654486  0.46381793    -0.80200
O26         O  0.41484467  0.40524896  0.46687099    -0.78900
Zn27       Zn  0.02648364  0.46589255  0.48981841     1.55700
O28         O  0.48960749  0.08499375  0.46109919    -0.80300
Cd29       Cd  0.42998183  0.46632015  0.48903543     1.59700
Cd30       Cd  0.49946374  0.00365025  0.04068495     1.59600
O31         O  0.38476376  0.44502390  0.01999580    -0.80300
O32         O  0.49698527  0.00156722  0.49973588    -1.90800
Cd33       Cd  0.02994116  0.06893248  0.48561702     1.59900
O34         O  0.43004706  0.46486796  0.05758126    -0.80200
O35         O  0.08834419  0.07979551  0.46363741    -0.78900
C36         C  0.05362449  0.44919737  0.04470617     0.83700
C37         C  0.43903332  0.38559542  0.46075696     0.83300
O38         O  0.08026620  0.00634617  0.46331224    -0.77800
C39         C  0.44539706  0.06023829  0.45541938     0.84100
O40         O  0.05102667  0.44322679  0.01864593    -0.77900
C41         C  0.38941306  0.44575846  0.04612495     0.84300
C42         C  0.05267226  0.11536219  0.04341810     0.84600
O43         O  0.03071671  0.07390834  0.05540028    -0.80300
O44         O  0.00796343  0.09596065  0.21492589    -0.77800
C45         C  0.38608181  0.45116071  0.20632302     0.83200
O46         O  0.46127194  0.03364655  0.30965863    -0.79000
O47         O  0.43463831  0.38551403  0.26843015    -0.80400
O48         O  0.07474728  0.49093689  0.21236682    -0.80200
O49         O  0.07573279  0.09613306  0.21196967    -0.78900
Zn50       Zn  0.46636685  0.03996869  0.23937540     1.55700
O51         O  0.00401856  0.42240887  0.21082993    -0.80300
Cd52       Cd  0.06176588  0.03712379  0.23630203     1.59700
Cd53       Cd  0.49871556  0.00291438  0.29259388     1.59600
O54         O  0.11107920  0.06059068  0.26765023    -0.80300
O55         O  0.49685711  0.00446608  0.25119322    -1.90800
Cd56       Cd  0.45921765  0.43454979  0.23591366     1.59900
O57         O  0.06747323  0.04140646  0.30628692    -0.80200
O58         O  0.40116962  0.42306984  0.21324104    -0.78900
C59         C  0.44431016  0.05749148  0.29831040     0.83900
C60         C  0.05039735  0.11447679  0.20584070     0.83300
O61         O  0.40698611  0.49538183  0.21381374    -0.77800
C62         C  0.04805176  0.44716569  0.20433574     0.84100
O63         O  0.44556136  0.06353977  0.27223330    -0.77900
C64         C  0.10770807  0.05994952  0.29386604     0.84300
C65         C  0.43657074  0.38975341  0.29460628     0.84600
O66         O  0.45707509  0.43104790  0.30640615    -0.80300
C67         C  0.07417961  0.16001532  0.06024209     0.00500
C68         C  0.12170283  0.19616459  0.05512341    -0.11400
C69         C  0.14413616  0.23880448  0.07076213     0.02700
C70         C  0.11848779  0.24647427  0.09172878     0.00400
C71         C  0.07031285  0.21076818  0.09617032    -0.11300
C72         C  0.04831528  0.16755920  0.08098017     0.02600
H73         H  0.14181620  0.19044474  0.03925132     0.15600
H74         H  0.04972573  0.21661287  0.11162398     0.15600
C75         C  0.49959705  0.13090287  0.08708593     0.37200
C76         C  0.19401778  0.27235450  0.06540721     0.37200
N77         N  0.46064370  0.10153626  0.09247311    -0.43100
N78         N  0.23401590  0.29771468  0.06022803    -0.43100
C79         C  0.26165014  0.38895830  0.09539534     0.00500
C80         C  0.29597324  0.37651310  0.10191418    -0.11400
C81         C  0.33827447  0.39510008  0.08652487     0.02700
C82         C  0.34608153  0.42542941  0.06351054     0.00400
C83         C  0.31172204  0.43729130  0.05674355    -0.11300
C84         C  0.27022357  0.42009373  0.07257514     0.02600
H85         H  0.28938556  0.35151547  0.11881792     0.15600
H86         H  0.31790104  0.46118182  0.03927688     0.15600
C87         C  0.23835308  0.43674596  0.06515402     0.37200
C88         C  0.37202931  0.38085909  0.09404631     0.37200
N89         N  0.21382698  0.45096336  0.05839815    -0.43100
N90         N  0.39906210  0.36941427  0.10008078    -0.43100
C91         C  0.07590996  0.42761410  0.06142596     0.00500
C92         C  0.10760181  0.45565256  0.08232159    -0.11400
C93         C  0.13088135  0.43758646  0.09810290     0.02700
C94         C  0.12043491  0.38942506  0.09416508     0.00400
C95         C  0.08929655  0.36162439  0.07301198    -0.11300
C96         C  0.06754212  0.38044837  0.05642734     0.02600
H97         H  0.11562388  0.49256105  0.08560507     0.15600
H98         H  0.08165281  0.32488021  0.06957179     0.15600
C99         C  0.03600654  0.35017012  0.03488181     0.37200
C100        C  0.16790395  0.47049384  0.11655012     0.37200
N101        N  0.01095637  0.32598670  0.01751747    -0.43100
N102        N  0.19791021  0.49736540  0.13101020    -0.43100
C103        C  0.11570158  0.24278480  0.15428792     0.00500
C104        C  0.07516827  0.23151612  0.16985239    -0.11400
C105        C  0.05208264  0.18918271  0.18598465     0.02700
C106        C  0.07105813  0.15819017  0.18761502     0.00400
C107        C  0.11156051  0.16961582  0.17156101    -0.11300
C108        C  0.13349973  0.21109512  0.15471031     0.02600
H109        H  0.06118444  0.25571193  0.16908230     0.15600
H110        H  0.12639134  0.14619218  0.17218968     0.15600
C111        C  0.17595703  0.22200472  0.13944063     0.37200
C112        C  0.00914452  0.17901911  0.20039067     0.37200
N113        N  0.21013270  0.23086287  0.12735343    -0.43100
N114        N  0.97437898  0.17094669  0.21147975    -0.43100
C115        C  0.34225645  0.43112010  0.18981540     0.00500
C116        C  0.30493425  0.38405832  0.19604644    -0.11400
C117        C  0.26252480  0.36258567  0.18120835     0.02700
C118        C  0.25736989  0.38780940  0.15873962     0.00400
C119        C  0.29431776  0.43583439  0.15317049    -0.11300
C120        C  0.33646870  0.45758500  0.16843041     0.02600
H121        H  0.30867841  0.36409283  0.21300695     0.15600
H122        H  0.29028300  0.45643850  0.13672802     0.15600
C123        C  0.37372821  0.50627639  0.16102927     0.37200
C124        C  0.22549900  0.31506719  0.19030574     0.37200
N125        N  0.40356572  0.54531173  0.15509751    -0.43100
N126        N  0.19685130  0.27770318  0.19923539    -0.43100
C127        C  0.11523941  0.38374240  0.15752670     0.00500
C128        C  0.06783664  0.37008487  0.15196998    -0.11400
C129        C  0.04493093  0.38989654  0.16686871     0.02700
C130        C  0.06961088  0.42419810  0.18788086     0.00400
C131        C  0.11642249  0.43675991  0.19384449    -0.11300
C132        C  0.13907785  0.41663052  0.17925823     0.02600
H133        H  0.04881882  0.34427037  0.13567367     0.15600
H134        H  0.13552685  0.46246946  0.21018958     0.15600
C135        C  0.18756058  0.43263323  0.18658731     0.37200
C136        C  0.99691897  0.37585577  0.15936374     0.37200
N137        N  0.22629039  0.44672768  0.19343178    -0.43100
N138        N  0.95843830  0.36454955  0.15328886    -0.43100
C139        C  0.37543252  0.11971268  0.40857079     0.00500
C140        C  0.42425916  0.13789887  0.40434195    -0.11400
C141        C  0.44824136  0.11976879  0.41943263     0.02700
C142        C  0.42308707  0.08254725  0.43927720     0.00400
C143        C  0.37456967  0.06544741  0.44394987    -0.11300
C144        C  0.35079292  0.08383589  0.42906899     0.02600
H145        H  0.44367619  0.16617249  0.38900638     0.15600
H146        H  0.35491940  0.03742085  0.45940951     0.15600
C147        C  0.30075680  0.06354010  0.43482439     0.37200
C148        C  0.49803920  0.13888429  0.41335229     0.37200
N149        N  0.26072859  0.04615954  0.44017208    -0.43100
N150        N  0.03436234  0.14409318  0.40326363    -0.43100
C151        C  0.41635033  0.34014891  0.44424997     0.00500
C152        C  0.44497360  0.32903371  0.42769499    -0.11400
C153        C  0.42448093  0.28816486  0.41047125     0.02700
C154        C  0.37454703  0.25781260  0.40944756     0.00400
C155        C  0.34624179  0.26767248  0.42676666    -0.11300
C156        C  0.36635814  0.30797487  0.44415618     0.02600
H157        H  0.48340338  0.35265729  0.42786594     0.15600
H158        H  0.30797934  0.24484716  0.42599574     0.15600
C159        C  0.33460882  0.31430736  0.46215272     0.37200
C160        C  0.45528086  0.27744536  0.39449112     0.37200
N161        N  0.30907284  0.31907938  0.47663487    -0.43100
N162        N  0.47988625  0.26865369  0.38173565    -0.43100
C163        C  0.23146952  0.11094948  0.40827229     0.00500
C164        C  0.22914357  0.13555348  0.43155749    -0.11400
C165        C  0.18777828  0.11681473  0.44755532     0.02700
C166        C  0.14773836  0.07142679  0.44089974     0.00400
C167        C  0.15091247  0.04473749  0.41900963    -0.11300
C168        C  0.19234734  0.06385597  0.40277490     0.02600
H169        H  0.25937569  0.17010221  0.43715172     0.15600
H170        H  0.12072775  0.00904152  0.41439066     0.15600
C171        C  0.19413665  0.03310085  0.38174840     0.37200
C172        C  0.18794979  0.14445300  0.47111627     0.37200
N173        N  0.19449936  0.00766661  0.36499284    -0.43100
N174        N  0.19108194  0.17570616  0.98564539    -0.43100
C175        C  0.42218397  0.07873685  0.31561825     0.00500
C176        C  0.38265468  0.04820784  0.33234352    -0.11400
C177        C  0.35861130  0.06675618  0.34729446     0.02700
C178        C  0.37476594  0.11702120  0.34615648     0.00400
C179        C  0.41545214  0.14756267  0.33028322    -0.11300
C180        C  0.43862056  0.12891496  0.31471390     0.02600
H181        H  0.36975248  0.00955483  0.33313842     0.15600
H182        H  0.43044286  0.18640377  0.33081843     0.15600
C183        C  0.48028996  0.16227601  0.29873364     0.37200
C184        C  0.31730046  0.03326851  0.36341577     0.37200
N185        N  0.99577153  0.18388810  0.27373615    -0.43100
N186        N  0.28445886  0.00589408  0.37638303    -0.43100
C187        C  0.37215312  0.26080040  0.34565668     0.00500
C188        C  0.40283454  0.26618122  0.32381029    -0.11400
C189        C  0.42374557  0.30751194  0.30684656     0.02700
C190        C  0.41460187  0.34522380  0.31180657     0.00400
C191        C  0.38279394  0.33958531  0.33300649    -0.11300
C192        C  0.36031805  0.29716377  0.34926492     0.02600
H193        H  0.41038982  0.23780868  0.31968435     0.15600
H194        H  0.37391464  0.36753101  0.33606377     0.15600
C195        C  0.32204456  0.29029620  0.36721073     0.37200
C196        C  0.97647644  0.32640082  0.29352291     0.37200
N197        N  0.29109487  0.28596882  0.38099322    -0.43100
N198        N  0.00767191  0.33343892  0.27904105    -0.43100
C199        C  0.23395125  0.12151849  0.34406561     0.00500
C200        C  0.23014511  0.09378288  0.32079261    -0.11400
C201        C  0.18982042  0.07401911  0.30392829     0.02700
C202        C  0.15188042  0.08148595  0.31038825     0.00400
C203        C  0.15628788  0.11049299  0.33304139    -0.11300
C204        C  0.19722316  0.13158213  0.34936929     0.02600
H205        H  0.25812635  0.08612235  0.31626291     0.15600
H206        H  0.12797591  0.11764652  0.33763353     0.15600
C207        C  0.20060693  0.16451034  0.37066211     0.37200
C208        C  0.18747757  0.04444664  0.28088023     0.37200
N209        N  0.20185415  0.19036042  0.38767791    -0.43100
N210        N  0.18575333  0.02083393  0.26240041    -0.43100
C211        C  0.32872926  0.16430236  0.84706605     0.46100
H212        H  0.32893946  0.16411605  0.82416785    -0.02900
C213        C  0.32927055  0.16332069  0.90072431     0.46200
H214        H  0.32967748  0.16339892  0.92364121    -0.02900
C215        C  0.35642813  0.21553361  0.85958998    -0.16600
C216        C  0.27865794  0.14080098  0.85997078    -0.16400
C217        C  0.35093959  0.13632392  0.85936297    -0.16700
C218        C  0.35693500  0.21491351  0.88806739    -0.16700
C219        C  0.27883395  0.13925640  0.88836114    -0.16300
C220        C  0.35164354  0.13593964  0.88774307    -0.16600
C221        C  0.16238675  0.33677753  0.65285725     0.46100
H222        H  0.16052472  0.33357120  0.67570864    -0.02900
C223        C  0.16484692  0.34271733  0.59921157     0.46200
H224        H  0.16532637  0.34517780  0.57636263    -0.02900
C225        C  0.21331652  0.36436436  0.64102092    -0.16600
C226        C  0.13809635  0.28738305  0.63829267    -0.16400
C227        C  0.13790660  0.36302961  0.64137585    -0.16700
C228        C  0.21458288  0.36742068  0.61258344    -0.16700
C229        C  0.13889758  0.29004516  0.60997140    -0.16300
C230        C  0.13934350  0.36627356  0.61304374    -0.16600
O231        O  0.48448305  0.40840810  0.96311955    -0.77800
C232        C  0.10750332  0.05566911  0.95574771     0.83200
O233        O  0.03486599  0.47509263  0.55988406    -0.79000
O234        O  0.05428902  0.11863098  0.51743363    -0.80400
O235        O  0.41605601  0.01127030  0.96313708    -0.80200
O236        O  0.41611172  0.40735903  0.96335088    -0.78900
Zn237      Zn  0.03062541  0.46860047  0.98670187     1.55700
O238        O  0.48649545  0.07977126  0.95867392    -0.80300
Cd239      Cd  0.43192487  0.46739082  0.98712371     1.59700
Cd240      Cd  0.49767413  0.00383261  0.54102000     1.59600
O241        O  0.38320304  0.44438243  0.52170973    -0.80300
O242        O  0.49721003  0.00050989  0.99938357    -1.90800
Cd243      Cd  0.03293386  0.07047310  0.98519241     1.59900
O244        O  0.42825024  0.46603465  0.55947714    -0.80200
O245        O  0.09206962  0.08330372  0.96289680    -0.78900
C246        C  0.04896107  0.44870316  0.54867934     0.83700
C247        C  0.44119708  0.38953866  0.95558404     0.83300
O248        O  0.08540206  0.01057806  0.96218153    -0.77800
C249        C  0.44217194  0.05404661  0.95330581     0.84100
O250        O  0.04584976  0.44111157  0.52275514    -0.77900
C251        C  0.38772791  0.44616455  0.54781472     0.84300
C252        C  0.04902002  0.11464289  0.54356537     0.84600
O253        O  0.02661073  0.07327748  0.55560790    -0.80300
O254        O  0.00860671  0.09463689  0.71408333    -0.77800
C255        C  0.38669957  0.45232356  0.70641249     0.83200
O256        O  0.46058321  0.03621325  0.80578023    -0.79000
O257        O  0.43976006  0.38906089  0.76802855    -0.80400
O258        O  0.07544939  0.49061549  0.71237901    -0.80200
O259        O  0.07586540  0.09378363  0.71067021    -0.78900
Zn260      Zn  0.46475840  0.03711780  0.73593887     1.55700
O261        O  0.00373684  0.42311615  0.71078448    -0.80300
Cd262      Cd  0.06129530  0.03513559  0.73563636     1.59700
Cd263      Cd  0.49829926  0.00514073  0.79097201     1.59600
O264        O  0.11086754  0.05951552  0.76710006    -0.80300
O265        O  0.49553978  0.00333643  0.74965765    -1.90800
Cd266      Cd  0.46139400  0.43700097  0.73527247     1.59900
O267        O  0.06777073  0.04295124  0.80576901    -0.80200
O268        O  0.40160173  0.42420122  0.71362198    -0.78900
C269        C  0.44257394  0.05807811  0.79337760     0.83900
C270        C  0.05081406  0.11259760  0.70483068     0.83300
O271        O  0.40897879  0.49698016  0.71318069    -0.77800
C272        C  0.04787374  0.44702075  0.70449860     0.84100
O273        O  0.44340253  0.06219244  0.76722099    -0.77900
C274        C  0.10783040  0.06042758  0.79330989     0.84300
C275        C  0.44663678  0.39331511  0.79398962     0.84600
O276        O  0.46962005  0.43464452  0.80562265    -0.80300
C277        C  0.07035546  0.15963852  0.56021697     0.00500
C278        C  0.11562268  0.19840111  0.55275238    -0.11400
C279        C  0.13833246  0.24118778  0.56825775     0.02700
C280        C  0.11508792  0.24651585  0.59151314     0.00400
C281        C  0.06850257  0.20859027  0.59794227    -0.11300
C282        C  0.04663465  0.16503768  0.58308627     0.02600
H283        H  0.13409650  0.19461294  0.53515609     0.15600
H284        H  0.04911017  0.21270674  0.61486188     0.15600
C285        C  0.50326522  0.12865141  0.59029540     0.37200
C286        C  0.18618868  0.27757896  0.56016407     0.37200
N287        N  0.46562586  0.09793128  0.59704340    -0.43100
N288        N  0.22440428  0.30576856  0.55279913    -0.43100
C289        C  0.25917378  0.38840338  0.59585573     0.00500
C290        C  0.29239808  0.37426786  0.60183826    -0.11400
C291        C  0.33491507  0.39305714  0.58675563     0.02700
C292        C  0.34420667  0.42576499  0.56482495     0.00400
C293        C  0.31058991  0.43878161  0.55827810    -0.11300
C294        C  0.26848644  0.42074390  0.57359031     0.02600
H295        H  0.28477189  0.34784194  0.61808978     0.15600
H296        H  0.31760543  0.46375666  0.54125888     0.15600
C297        C  0.23622723  0.43676152  0.56587422     0.37200
C298        C  0.36712469  0.37628682  0.59320533     0.37200
N299        N  0.21105393  0.45000025  0.55881384    -0.43100
N300        N  0.39276789  0.36258656  0.59829271    -0.43100
C301        C  0.07032135  0.42681137  0.56598859     0.00500
C302        C  0.10658156  0.45629404  0.58451362    -0.11400
C303        C  0.13018044  0.43769337  0.59964934     0.02700
C304        C  0.11694654  0.38849788  0.59667301     0.00400
C305        C  0.08031910  0.35891140  0.57844549    -0.11300
C306        C  0.05675859  0.37749161  0.56331614     0.02600
H307        H  0.11751994  0.49432258  0.58649896     0.15600
H308        H  0.06941359  0.32087388  0.57650011     0.15600
C309        C  0.01726944  0.34472017  0.54617517     0.37200
C310        C  0.16942312  0.47028749  0.61699265     0.37200
N311        N  0.98532777  0.31844696  0.53262160    -0.43100
N312        N  0.20105660  0.49636853  0.63079287    -0.43100
C313        C  0.11540632  0.24162463  0.65429655     0.00500
C314        C  0.07678316  0.23147438  0.67134538    -0.11400
C315        C  0.05392413  0.18890199  0.68715549     0.02700
C316        C  0.07136829  0.15652189  0.68695956     0.00400
C317        C  0.11003218  0.16684777  0.66951922    -0.11300
C318        C  0.13161360  0.20863693  0.65291683     0.02600
H319        H  0.06396933  0.25667792  0.67191457     0.15600
H320        H  0.12355601  0.14228762  0.66883652     0.15600
C321        C  0.17210650  0.21847505  0.63595169     0.37200
C322        C  0.01276451  0.17995542  0.70313639     0.37200
N323        N  0.20470338  0.22664994  0.62242894    -0.43100
N324        N  0.97933602  0.17280681  0.71545245    -0.43100
C325        C  0.34198867  0.43184818  0.69020428     0.00500
C326        C  0.30642737  0.38323425  0.69494950    -0.11400
C327        C  0.26392192  0.36107989  0.68005228     0.02700
C328        C  0.25669423  0.38711427  0.65891442     0.00400
C329        C  0.29186273  0.43629227  0.65458221    -0.11300
C330        C  0.33388923  0.45888600  0.67012763     0.02600
H331        H  0.31162151  0.36237743  0.71075809     0.15600
H332        H  0.28630931  0.45726525  0.63903679     0.15600
C333        C  0.36838067  0.50939464  0.66449957     0.37200
C334        C  0.22907855  0.31164967  0.68743286     0.37200
N335        N  0.39583627  0.54996641  0.66003773    -0.43100
N336        N  0.20245441  0.27247269  0.69495137    -0.43100
C337        C  0.11329768  0.38106194  0.65939084     0.00500
C338        C  0.06660063  0.36901342  0.65299293    -0.11400
C339        C  0.04451210  0.39031447  0.66707049     0.02700
C340        C  0.06871418  0.42312122  0.68867808     0.00400
C341        C  0.11427481  0.43323335  0.69595074    -0.11300
C342        C  0.13657690  0.41249629  0.68173148     0.02600
H343        H  0.04777887  0.34389991  0.63638877     0.15600
H344        H  0.13273170  0.45770750  0.71290191     0.15600
C345        C  0.18386976  0.42590285  0.69031460     0.37200
C346        C  0.99850418  0.38029815  0.65776699     0.37200
N347        N  0.22147499  0.43746692  0.69826848    -0.43100
N348        N  0.96181902  0.37256636  0.65013356    -0.43100
C349        C  0.37432542  0.11414379  0.90459660     0.00500
C350        C  0.42057410  0.12472495  0.89768834    -0.11400
C351        C  0.44315056  0.10510675  0.91287865     0.02700
C352        C  0.41967651  0.07459311  0.93581049     0.00400
C353        C  0.37336440  0.06345129  0.94250552    -0.11300
C354        C  0.35069538  0.08286805  0.92731032     0.02600
H355        H  0.43957626  0.14907791  0.88057042     0.15600
H356        H  0.35483926  0.03972754  0.95997239     0.15600
C357        C  0.30262080  0.06828720  0.93526473     0.37200
C358        C  0.48955693  0.11534787  0.90382965     0.37200
N359        N  0.26418818  0.05550957  0.94253174    -0.43100
N360        N  0.03202066  0.13603954  0.90038759    -0.43100
C361        C  0.41936052  0.34536131  0.93780357     0.00500
C362        C  0.43701589  0.31368156  0.93919919    -0.11400
C363        C  0.41691261  0.27091411  0.92361310     0.02700
C364        C  0.37876157  0.25933683  0.90561952     0.00400
C365        C  0.36127423  0.29104219  0.90393552    -0.11300
C366        C  0.38090517  0.33352483  0.91980430     0.02600
H367        H  0.46634098  0.32196433  0.95287200     0.15600
H368        H  0.33203493  0.28247520  0.89012374     0.15600
C369        C  0.36141005  0.36465696  0.91659239     0.37200
C370        C  0.43736959  0.24062554  0.92615109     0.37200
N371        N  0.34560562  0.38946329  0.91400861    -0.43100
N372        N  0.45510731  0.21767033  0.92894936    -0.43100
C373        C  0.23527890  0.11599509  0.90611400     0.00500
C374        C  0.23225223  0.14302190  0.92786991    -0.11400
C375        C  0.19132254  0.12388444  0.94451511     0.02700
C376        C  0.15231798  0.07663234  0.93950403     0.00400
C377        C  0.15628362  0.04872290  0.91863587    -0.11300
C378        C  0.19731231  0.06770124  0.90211686     0.02600
H379        H  0.26170449  0.17959954  0.93157709     0.15600
H380        H  0.12705498  0.01196106  0.91509912     0.15600
C381        C  0.20005353  0.03575056  0.88228404     0.37200
C382        C  0.19112691  0.15274831  0.96727834     0.37200
N383        N  0.20128162  0.00946827  0.86646021    -0.43100
N384        N  0.18818716  0.16662466  0.48997960    -0.43100
C385        C  0.41894057  0.07832590  0.80970684     0.00500
C386        C  0.38239591  0.04760109  0.82806571    -0.11400
C387        C  0.35815152  0.06494173  0.84358727     0.02700
C388        C  0.37158472  0.11434187  0.84140420     0.00400
C389        C  0.40741555  0.14474441  0.82253873    -0.11300
C390        C  0.43110595  0.12715320  0.80668963     0.02600
H391        H  0.37228940  0.00973901  0.82994115     0.15600
H392        H  0.41796254  0.18275328  0.82084608     0.15600
C393        C  0.46948375  0.16051970  0.78865551     0.37200
C394        C  0.31945003  0.03109324  0.86124794     0.37200
N395        N  0.00163068  0.18935906  0.77647243    -0.43100
N396        N  0.28876913  0.00340024  0.87541639    -0.43100
C397        C  0.38007190  0.26075291  0.84209865     0.00500
C398        C  0.42663468  0.29834788  0.84844146    -0.11400
C399        C  0.44914935  0.34218282  0.83338940     0.02700
C400        C  0.42556321  0.34843274  0.81090563     0.00400
C401        C  0.38026802  0.31039532  0.80380280    -0.11300
C402        C  0.35730865  0.26718377  0.81905058     0.02600
H403        H  0.44572936  0.29345187  0.86511526     0.15600
H404        H  0.36205517  0.31490115  0.78642108     0.15600
C405        C  0.31008876  0.23144555  0.81019727     0.37200
C406        C  0.99682502  0.38012233  0.84093289     0.37200
N407        N  0.27280319  0.20445938  0.80149929    -0.43100
N408        N  0.03535764  0.40948393  0.84671889    -0.43100
C409        C  0.23514860  0.12211323  0.84261036     0.00500
C410        C  0.22884320  0.09073895  0.82077795    -0.11400
C411        C  0.18804688  0.07085135  0.80432784     0.02700
C412        C  0.15217241  0.08190486  0.80974196     0.00400
C413        C  0.15905314  0.11439371  0.83105472    -0.11300
C414        C  0.20063520  0.13553281  0.84693969     0.02600
H415        H  0.25546239  0.08084700  0.81695159     0.15600
H416        H  0.13254424  0.12448892  0.83470897     0.15600
C417        C  0.20873433  0.17367309  0.86587286     0.37200
C418        C  0.18307913  0.03771019  0.78270193     0.37200
N419        N  0.21535979  0.20462044  0.88079079    -0.43100
N420        N  0.17912866  0.01120549  0.76534499    -0.43100
C421        C  0.32532849  0.66171396  0.34944941     0.46100
H422        H  0.32491386  0.66091901  0.32654734    -0.02900
C423        C  0.32719552  0.66268966  0.40309621     0.46200
H424        H  0.32817779  0.66383856  0.42599722    -0.02900
C425        C  0.35289591  0.71339311  0.36137312    -0.16600
C426        C  0.27546571  0.63812176  0.36274897    -0.16400
C427        C  0.34857654  0.63475613  0.36202331    -0.16700
C428        C  0.35375595  0.71369167  0.38978645    -0.16700
C429        C  0.27652814  0.63762731  0.39112972    -0.16300
C430        C  0.34998738  0.63545354  0.39045623    -0.16600
C431        C  0.16484710  0.84271539  0.15256648     0.46100
H432        H  0.16188497  0.84047073  0.17541983    -0.02900
C433        C  0.16962350  0.84703037  0.09894484     0.46200
H434        H  0.17116330  0.84875750  0.07606681    -0.02900
C435        C  0.21635788  0.86962502  0.14145141    -0.16600
C436        C  0.14085661  0.79273511  0.13853180    -0.16400
C437        C  0.14127319  0.86903282  0.13983753    -0.16700
C438        C  0.21881246  0.87205468  0.11297132    -0.16700
C439        C  0.14310425  0.79467769  0.11019070    -0.16300
C440        C  0.14362937  0.87114088  0.11147773    -0.16600
O441        O  0.47935332  0.90736424  0.46352246    -0.77800
C442        C  0.10758031  0.55406321  0.45981562     0.83200
O443        O  0.03623231  0.97184745  0.05518881    -0.79000
O444        O  0.05975954  0.62299424  0.01762184    -0.80400
O445        O  0.41656688  0.51118391  0.46472304    -0.80200
O446        O  0.41237915  0.90894636  0.46265653    -0.78900
Zn447      Zn  0.02183881  0.96345029  0.48655873     1.55700
O448        O  0.48695743  0.57968979  0.46083855    -0.80300
Cd449      Cd  0.43005014  0.96919883  0.48661731     1.59700
Cd450      Cd  0.49891397  0.50358955  0.04192629     1.59600
O451        O  0.38446141  0.94482052  0.02062757    -0.80300
O452        O  0.49670279  0.49972238  0.50253822    -1.90800
Cd453      Cd  0.03089404  0.56935787  0.48549919     1.59900
O454        O  0.43144634  0.96639500  0.05753980    -0.80200
O455        O  0.09089167  0.58135333  0.46498513    -0.78900
C456        C  0.05195530  0.94754506  0.04313154     0.83700
C457        C  0.43637399  0.88949594  0.45570330     0.83300
O458        O  0.08627672  0.50959421  0.46750970    -0.77800
C459        C  0.44269008  0.55428017  0.45529535     0.84100
O460        O  0.04887944  0.94117073  0.01708168    -0.77900
C461        C  0.39033550  0.94691219  0.04667077     0.84300
C462        C  0.05534578  0.61899665  0.04381875     0.84600
O463        O  0.03418135  0.57763583  0.05598237    -0.80300
O464        O  0.01006913  0.59732410  0.21293888    -0.77800
C465        C  0.38731111  0.95354756  0.20832893     0.83200
O466        O  0.45809033  0.53511960  0.30678664    -0.79000
O467        O  0.43853167  0.88706127  0.26903416    -0.80400
O468        O  0.07271194  0.99057110  0.21265646    -0.80200
O469        O  0.07852616  0.59855663  0.21137811    -0.78900
Zn470      Zn  0.46407927  0.53791214  0.23706270     1.55700
O471        O  0.00270700  0.92114607  0.21180564    -0.80300
Cd472      Cd  0.06344701  0.53849770  0.23568774     1.59700
Cd473      Cd  0.49352177  0.50198253  0.29145801     1.59600
O474        O  0.11058749  0.56108150  0.26856698    -0.80300
O475        O  0.49429518  0.50278507  0.25001910    -1.90800
Cd476      Cd  0.46123276  0.93653045  0.23672736     1.59900
O477        O  0.06504833  0.54260035  0.30641221    -0.80200
O478        O  0.40241457  0.92523544  0.21474689    -0.78900
C479        C  0.44063277  0.55776688  0.29473048     0.83900
C480        C  0.05307084  0.61664365  0.20476477     0.83300
O481        O  0.40839394  0.99760058  0.21625640    -0.77800
C482        C  0.04651313  0.94672770  0.20484659     0.84100
O483        O  0.44181597  0.56246979  0.26858700    -0.77900
C484        C  0.10585612  0.56045126  0.29476590     0.84300
C485        C  0.44543766  0.89055183  0.29501984     0.84600
O486        O  0.46863967  0.93163212  0.30699059    -0.80300
C487        C  0.07634843  0.66401803  0.06046885     0.00500
C488        C  0.12236036  0.70224935  0.05383097    -0.11400
C489        C  0.14466254  0.74496857  0.06944670     0.02700
C490        C  0.12031368  0.75072813  0.09198863     0.00400
C491        C  0.07321248  0.71321674  0.09766162    -0.11300
C492        C  0.05160332  0.66983892  0.08261499     0.02600
H493        H  0.14161477  0.69810370  0.03678800     0.15600
H494        H  0.05306666  0.71767737  0.11399487     0.15600
C495        C  0.49803547  0.63072140  0.08967046     0.37200
C496        C  0.19314095  0.78087192  0.06218426     0.37200
N497        N  0.45938811  0.60127377  0.09561441    -0.43100
N498        N  0.23189044  0.80860818  0.05546527    -0.43100
C499        C  0.26387013  0.89309375  0.09654575     0.00500
C500        C  0.29792119  0.88038565  0.10326382    -0.11400
C501        C  0.34027673  0.89870496  0.08798283     0.02700
C502        C  0.34780600  0.92805532  0.06454363     0.00400
C503        C  0.31375388  0.94026342  0.05764565    -0.11300
C504        C  0.27263573  0.92404715  0.07362642     0.02600
H505        H  0.29128378  0.85574157  0.12036737     0.15600
H506        H  0.31989312  0.96366605  0.03993439     0.15600
C507        C  0.24125828  0.94129054  0.06615243     0.37200
C508        C  0.37463142  0.88575536  0.09631157     0.37200
N509        N  0.21718047  0.95601507  0.05933800    -0.43100
N510        N  0.40226242  0.87559930  0.10314727    -0.43100
C511        C  0.07550604  0.92742737  0.05996868     0.00500
C512        C  0.10778739  0.95700921  0.08025884    -0.11400
C513        C  0.13149454  0.94018313  0.09665202     0.02700
C514        C  0.12135596  0.89196025  0.09376550     0.00400
C515        C  0.08960898  0.86257186  0.07320162    -0.11300
C516        C  0.06703799  0.87996789  0.05616454     0.02600
H517        H  0.11566259  0.99404145  0.08271642     0.15600
H518        H  0.08203025  0.82566069  0.07064202     0.15600
C519        C  0.03427244  0.84786173  0.03560495     0.37200
C520        C  0.16856271  0.97431947  0.11465363     0.37200
N521        N  0.00811208  0.82207955  0.01910626    -0.43100
N522        N  0.19866176  0.00225347  0.12868607    -0.43100
C523        C  0.11832017  0.74709215  0.15483221     0.00500
C524        C  0.07784642  0.73514638  0.17063063    -0.11400
C525        C  0.05484793  0.69213013  0.18619097     0.02700
C526        C  0.07404118  0.66123068  0.18719501     0.00400
C527        C  0.11475626  0.67358142  0.17113792    -0.11300
C528        C  0.13642643  0.71563866  0.15469527     0.02600
H529        H  0.06357726  0.75911167  0.17028054     0.15600
H530        H  0.12975843  0.65029975  0.17133565     0.15600
C531        C  0.17882208  0.72735037  0.13910916     0.37200
C532        C  0.01153663  0.68100145  0.20052448     0.37200
N533        N  0.21292757  0.73709677  0.12666663    -0.43100
N534        N  0.97641306  0.67205424  0.21150528    -0.43100
C535        C  0.34351494  0.93406713  0.19166882     0.00500
C536        C  0.30583737  0.88699060  0.19750581    -0.11400
C537        C  0.26363388  0.86603863  0.18239325     0.02700
C538        C  0.25897390  0.89172993  0.15996433     0.00400
C539        C  0.29646626  0.93965090  0.15466015    -0.11300
C540        C  0.33834712  0.96092447  0.17025362     0.02600
H541        H  0.30915709  0.86656340  0.21436167     0.15600
H542        H  0.29304846  0.96059566  0.13817956     0.15600
C543        C  0.37609174  0.00953349  0.16311570     0.37200
C544        C  0.22639931  0.81838273  0.19111554     0.37200
N545        N  0.40636329  0.04848937  0.15740105    -0.43100
N546        N  0.19774679  0.78083435  0.19982808    -0.43100
C547        C  0.11641306  0.88774033  0.15712534     0.00500
C548        C  0.06854668  0.87251471  0.15179593    -0.11400
C549        C  0.04473175  0.89102188  0.16694737     0.02700
C550        C  0.06883820  0.92506412  0.18810393     0.00400
C551        C  0.11636012  0.93967028  0.19356762    -0.11300
C552        C  0.14012581  0.92138316  0.17850034     0.02600
H553        H  0.04987879  0.84647831  0.13553928     0.15600
H554        H  0.13524860  0.96575718  0.20978843     0.15600
C555        C  0.18959484  0.94028510  0.18476812     0.37200
C556        C  0.99654401  0.87631798  0.15948285     0.37200
N557        N  0.22919409  0.95697015  0.19059080    -0.43100
N558        N  0.95798069  0.86473379  0.15344360    -0.43100
C559        C  0.37378837  0.61501516  0.40763715     0.00500
C560        C  0.42000960  0.62580175  0.40044434    -0.11400
C561        C  0.44326852  0.60671659  0.41552601     0.02700
C562        C  0.42015192  0.57562015  0.43832396     0.00400
C563        C  0.37417884  0.56493949  0.44560012    -0.11300
C564        C  0.35122225  0.58463464  0.43087089     0.02600
H565        H  0.43847426  0.64993945  0.38315182     0.15600
H566        H  0.35621136  0.54148221  0.46325174     0.15600
C567        C  0.30414328  0.57166077  0.44009217     0.37200
C568        C  0.49022134  0.61853468  0.40661837     0.37200
N569        N  0.26673461  0.56054767  0.44854366    -0.43100
N570        N  0.03025633  0.63454206  0.39884940    -0.43100
C571        C  0.41403815  0.84462714  0.43855160     0.00500
C572        C  0.43430327  0.81518354  0.43889376    -0.11400
C573        C  0.41503148  0.77242858  0.42349313     0.02700
C574        C  0.37500881  0.75851262  0.40676489     0.00400
C575        C  0.35453705  0.78763364  0.40620560    -0.11300
C576        C  0.37329060  0.83013531  0.42200445     0.02600
H577        H  0.46529272  0.82530425  0.45149602     0.15600
H578        H  0.32357056  0.77690313  0.39345182     0.15600
C579        C  0.35016689  0.85813431  0.42039827     0.37200
C580        C  0.43834011  0.74468365  0.42475011     0.37200
N581        N  0.33135840  0.88032220  0.41913674    -0.43100
N582        N  0.45842536  0.72384995  0.42638669    -0.43100
C583        C  0.23373521  0.61449739  0.40933026     0.00500
C584        C  0.23056948  0.64228424  0.43058073    -0.11400
C585        C  0.19034022  0.62294684  0.44776618     0.02700
C586        C  0.15250225  0.57464876  0.44391655     0.00400
C587        C  0.15690684  0.54598886  0.42373253    -0.11300
C588        C  0.19705081  0.56536457  0.40649433     0.02600
H589        H  0.25922135  0.67959918  0.43337079     0.15600
H590        H  0.12844268  0.50856555  0.42104285     0.15600
C591        C  0.20022102  0.53330932  0.38693251     0.37200
C592        C  0.18940013  0.65298298  0.46963025     0.37200
N593        N  0.20193254  0.50704449  0.37130081    -0.43100
N594        N  0.19607403  0.68295021  0.98374264    -0.43100
C595        C  0.41706607  0.57783805  0.31151200     0.00500
C596        C  0.38253865  0.54750023  0.33102760    -0.11400
C597        C  0.35826209  0.56439255  0.34695886     0.02700
C598        C  0.36979532  0.61314363  0.34414441     0.00400
C599        C  0.40380998  0.64322258  0.32433935    -0.11300
C600        C  0.42734156  0.62600201  0.30800586     0.02600
H601        H  0.37381418  0.51013420  0.33341326     0.15600
H602        H  0.41294726  0.68075200  0.32213650     0.15600
C603        C  0.46358469  0.65925404  0.28887479     0.37200
C604        C  0.32118935  0.53064281  0.36553112     0.37200
N605        N  0.99473067  0.68832907  0.27362483    -0.43100
N606        N  0.29177836  0.50319199  0.38043889    -0.43100
C607        C  0.37699571  0.75816147  0.34353635     0.00500
C608        C  0.42442333  0.79448614  0.34909672    -0.11400
C609        C  0.44780092  0.83781654  0.33358104     0.02700
C610        C  0.42389943  0.84518043  0.31168060     0.00400
C611        C  0.37759698  0.80816579  0.30529033    -0.11300
C612        C  0.35401718  0.76520983  0.32086522     0.02600
H613        H  0.44354734  0.78884524  0.36545718     0.15600
H614        H  0.35912818  0.81336023  0.28831035     0.15600
C615        C  0.30590790  0.73031381  0.31296874     0.37200
C616        C  0.99287744  0.87468786  0.34138720     0.37200
N617        N  0.26775664  0.70378106  0.30524758    -0.43100
N618        N  0.03193464  0.90319531  0.34672458    -0.43100
C619        C  0.23137941  0.61883858  0.34574173     0.00500
C620        C  0.22458698  0.58689610  0.32414475    -0.11400
C621        C  0.18417088  0.56776617  0.30738617     0.02700
C622        C  0.14915234  0.58026471  0.31212746     0.00400
C623        C  0.15609732  0.61270370  0.33349635    -0.11300
C624        C  0.19725370  0.63292398  0.34981029     0.02600
H625        H  0.25074488  0.57628358  0.32059144     0.15600
H626        H  0.13016304  0.62369734  0.33675993     0.15600
C627        C  0.20563902  0.67128124  0.36865066     0.37200
C628        C  0.17868992  0.53401359  0.28602335     0.37200
N629        N  0.21244902  0.70246082  0.38343213    -0.43100
N630        N  0.17420154  0.50694517  0.26889001    -0.43100
C631        C  0.33052148  0.66356960  0.84746514     0.46100
H632        H  0.32997746  0.66333670  0.82454921    -0.02900
C633        C  0.33281722  0.66381366  0.90113855     0.46200
H634        H  0.33407920  0.66476336  0.92403828    -0.02900
C635        C  0.35683945  0.71498113  0.85976838    -0.16600
C636        C  0.28073569  0.63850976  0.86097847    -0.16400
C637        C  0.35498794  0.63759097  0.85967878    -0.16700
C638        C  0.35816004  0.71481704  0.88810739    -0.16700
C639        C  0.28206714  0.63794639  0.88936426    -0.16300
C640        C  0.35647584  0.63786046  0.88807762    -0.16600
C641        C  0.16256995  0.83939699  0.65074233     0.46100
H642        H  0.16032844  0.83607425  0.67358491    -0.02900
C643        C  0.16575215  0.84640778  0.59718227     0.46200
H644        H  0.16654563  0.84952167  0.57436719    -0.02900
C645        C  0.21367528  0.86731481  0.63913524    -0.16600
C646        C  0.13889807  0.79020236  0.63590863    -0.16400
C647        C  0.13781525  0.86545102  0.63933715    -0.16700
C648        C  0.21531143  0.87093265  0.61070250    -0.16700
C649        C  0.13993394  0.79361313  0.60758496    -0.16300
C650        C  0.13952582  0.86910392  0.61104386    -0.16600
O651        O  0.48209649  0.90819738  0.96232711    -0.77800
C652        C  0.11313110  0.55800198  0.95816713     0.83200
O653        O  0.03137197  0.97093750  0.55628350    -0.79000
O654        O  0.05323909  0.62058712  0.51614980    -0.80400
O655        O  0.42078967  0.51347124  0.96288721    -0.80200
O656        O  0.41320029  0.90600777  0.96342382    -0.78900
Zn657      Zn  0.02683982  0.96629809  0.98546597     1.55700
O658        O  0.49171689  0.58162171  0.95892937    -0.80300
Cd659      Cd  0.42963810  0.96634484  0.98699203     1.59700
Cd660      Cd  0.49731909  0.50347879  0.54391332     1.59600
O661        O  0.38356003  0.94720232  0.51953245    -0.80300
O662        O  0.49874925  0.50118673  0.00055398    -1.90800
Cd663      Cd  0.03754100  0.57319180  0.98574285     1.59900
O664        O  0.42891165  0.96668065  0.55706456    -0.80200
O665        O  0.09800226  0.58604882  0.96494986    -0.78900
C666        C  0.04625748  0.94565003  0.54457137     0.83700
C667        C  0.43855028  0.88871917  0.95528084     0.83300
O668        O  0.09023309  0.51286372  0.96445532    -0.77800
C669        C  0.44756614  0.55621836  0.95314545     0.84100
O670        O  0.04303875  0.93861807  0.51859045    -0.77900
C671        C  0.38829187  0.94806685  0.54561843     0.84300
C672        C  0.04979310  0.61810349  0.54236514     0.84600
O673        O  0.02993414  0.57766329  0.55540994    -0.80300
O674        O  0.01256925  0.59684361  0.71213225    -0.77800
C675        C  0.38523441  0.95040149  0.70569986     0.83200
O676        O  0.46394296  0.53676985  0.80555368    -0.79000
O677        O  0.43444823  0.88839492  0.76971455    -0.80400
O678        O  0.07057297  0.98633759  0.71287369    -0.80200
O679        O  0.08105265  0.59820496  0.70969091    -0.78900
Zn680      Zn  0.46823187  0.53928205  0.73569787     1.55700
O681        O  0.99954186  0.91812262  0.71215708    -0.80300
Cd682      Cd  0.06630204  0.53941683  0.73507755     1.59700
Cd683      Cd  0.50065362  0.50502122  0.79030974     1.59600
O684        O  0.11522531  0.56192150  0.76707135    -0.80300
O685        O  0.49899333  0.50512273  0.74898645    -1.90800
Cd686      Cd  0.45799134  0.93485133  0.73641619     1.59900
O687        O  0.07081881  0.54375201  0.80533648    -0.80200
O688        O  0.39944777  0.92199445  0.71347539    -0.78900
C689        C  0.44755812  0.56047893  0.79350624     0.83900
C690        C  0.05504731  0.61564605  0.70310701     0.83300
O691        O  0.40713576  0.99491760  0.71264353    -0.77800
C692        C  0.04351218  0.94237478  0.70539345     0.84100
O693        O  0.44893584  0.56565424  0.76739847    -0.77900
C694        C  0.11120761  0.56118626  0.79330969     0.84300
C695        C  0.44231425  0.89343591  0.79555499     0.84600
O696        O  0.46701176  0.93501847  0.80674975    -0.80300
C697        C  0.07048975  0.66384320  0.55802454     0.00500
C698        C  0.11471923  0.70315832  0.54953950    -0.11400
C699        C  0.13769016  0.74611309  0.56482417     0.02700
C700        C  0.11556263  0.75076915  0.58884313     0.00400
C701        C  0.06937673  0.71274200  0.59581109    -0.11300
C702        C  0.04746832  0.66902955  0.58127897     0.02600
H703        H  0.13237865  0.69954801  0.53147099     0.15600
H704        H  0.05052020  0.71671615  0.61308115     0.15600
C705        C  0.50012369  0.62999800  0.59030776     0.37200
C706        C  0.18455564  0.78335049  0.55565078     0.37200
N707        N  0.46227313  0.59966437  0.59700821    -0.43100
N708        N  0.22183384  0.81245845  0.54742424    -0.43100
C709        C  0.25994551  0.89147516  0.59396277     0.00500
C710        C  0.29278840  0.87676767  0.59981134    -0.11400
C711        C  0.33552334  0.89565106  0.58490212     0.02700
C712        C  0.34495393  0.92822083  0.56284893     0.00400
C713        C  0.31170692  0.94187240  0.55647571    -0.11300
C714        C  0.26980840  0.92440866  0.57195369     0.02600
H715        H  0.28496328  0.85027070  0.61605049     0.15600
H716        H  0.31896856  0.96709664  0.53955854     0.15600
C717        C  0.23842648  0.94188872  0.56490581     0.37200
C718        C  0.36817845  0.87974544  0.59200737     0.37200
N719        N  0.21387064  0.95633917  0.55862072    -0.43100
N720        N  0.39430829  0.86698677  0.59779839    -0.43100
C721        C  0.06902546  0.92506390  0.56163159     0.00500
C722        C  0.10204099  0.95468188  0.58161562    -0.11400
C723        C  0.12596293  0.93766158  0.59765096     0.02700
C724        C  0.11573758  0.88949937  0.59444443     0.00400
C725        C  0.08263131  0.85980047  0.57451392    -0.11300
C726        C  0.05938050  0.87714749  0.55807630     0.02600
H727        H  0.11034278  0.99185622  0.58407315     0.15600
H728        H  0.07462536  0.82274081  0.57195600     0.15600
C729        C  0.02460643  0.84454531  0.53846080     0.37200
C730        C  0.16299348  0.97137797  0.61580857     0.37200
N731        N  0.99665979  0.81837069  0.52279417    -0.43100
N732        N  0.19290145  0.99886219  0.63010287    -0.43100
C733        C  0.11669443  0.74399181  0.65167335     0.00500
C734        C  0.07859172  0.73351341  0.66925527    -0.11400
C735        C  0.05673906  0.69112008  0.68526107     0.02700
C736        C  0.07462000  0.65911559  0.68477630     0.00400
C737        C  0.11252855  0.66947470  0.66665894    -0.11300
C738        C  0.13311620  0.71114395  0.64982448     0.02600
H739        H  0.06550473  0.75846635  0.67020824     0.15600
H740        H  0.12625303  0.64510479  0.66568687     0.15600
C741        C  0.17282333  0.72101400  0.63211804     0.37200
C742        C  0.01632184  0.68213937  0.70199749     0.37200
N743        N  0.20467328  0.72912435  0.61791301    -0.43100
N744        N  0.98349408  0.67486830  0.71499747    -0.43100
C745        C  0.34161516  0.93065896  0.68873096     0.00500
C746        C  0.30435323  0.88307614  0.69402264    -0.11400
C747        C  0.26214673  0.86219353  0.67889683     0.02700
C748        C  0.25681450  0.88869059  0.65719368     0.00400
C749        C  0.29397283  0.93686599  0.65226026    -0.11300
C750        C  0.33600306  0.95791323  0.66770313     0.02600
H751        H  0.30797005  0.86213440  0.71045553     0.15600
H752        H  0.29013519  0.95825165  0.63622128     0.15600
C753        C  0.37334329  0.00683057  0.66081638     0.37200
C754        C  0.22571446  0.81356924  0.68668189     0.37200
N755        N  0.40326996  0.04603306  0.65527225    -0.43100
N756        N  0.19774322  0.77505591  0.69452926    -0.43100
C757        C  0.11245565  0.88229604  0.65760732     0.00500
C758        C  0.06405561  0.86575222  0.65312376    -0.11400
C759        C  0.04014722  0.88371814  0.66870399     0.02700
C760        C  0.06501254  0.91919981  0.68913706     0.00400
C761        C  0.11280916  0.93421964  0.69414232    -0.11300
C762        C  0.13640195  0.91591654  0.67890965     0.02600
H763        H  0.04508439  0.83921061  0.63713658     0.15600
H764        H  0.13214640  0.96083320  0.71005174     0.15600
C765        C  0.18595513  0.93469823  0.68488275     0.37200
C766        C  0.99092972  0.86661532  0.66247013     0.37200
N767        N  0.22561238  0.95090551  0.69040957    -0.43100
N768        N  0.95145958  0.85278535  0.65744021    -0.43100
C769        C  0.38003764  0.61707445  0.90499689     0.00500
C770        C  0.42627701  0.62776291  0.89788429    -0.11400
C771        C  0.44909276  0.60819826  0.91294187     0.02700
C772        C  0.42560038  0.57729817  0.93573180     0.00400
C773        C  0.37959705  0.56651769  0.94276135    -0.11300
C774        C  0.35694072  0.58621331  0.92795219     0.02600
H775        H  0.44495753  0.65191397  0.88063909     0.15600
H776        H  0.36133083  0.54297094  0.96034151     0.15600
C777        C  0.30961601  0.57267613  0.93692968     0.37200
C778        C  0.49573530  0.61901959  0.90398555     0.37200
N779        N  0.27204241  0.56088841  0.94537146    -0.43100
N780        N  0.02848945  0.62129336  0.89229607    -0.43100
C781        C  0.41712881  0.84453245  0.93758497     0.00500
C782        C  0.44017252  0.81775550  0.93581876    -0.11400
C783        C  0.42156276  0.77558342  0.91993322     0.02700
C784        C  0.37898993  0.75922831  0.90528649     0.00400
C785        C  0.35605340  0.78591032  0.90655654    -0.11300
C786        C  0.37461051  0.82825790  0.92241606     0.02600
H787        H  0.47297973  0.82967045  0.94695888     0.15600
H788        H  0.32356736  0.77362277  0.89498412     0.15600
C789        C  0.34976088  0.85462001  0.92193070     0.37200
C790        C  0.44839027  0.75143133  0.91793095     0.37200
N791        N  0.32965485  0.87556363  0.92137731    -0.43100
N792        N  0.47114911  0.73339528  0.91643947    -0.43100
C793        C  0.23953599  0.61559826  0.90776264     0.00500
C794        C  0.23691573  0.64424849  0.92867828    -0.11400
C795        C  0.19648371  0.62621829  0.94561682     0.02700
C796        C  0.15796330  0.57812032  0.94204104     0.00400
C797        C  0.16193496  0.54858761  0.92220933    -0.11300
C798        C  0.20217398  0.56678758  0.90512396     0.02600
H799        H  0.26602264  0.68141775  0.93123617     0.15600
H800        H  0.13307880  0.51130179  0.91968651     0.15600
C801        C  0.20475319  0.53388419  0.88594405     0.37200
C802        C  0.19609988  0.65761547  0.96679344     0.37200
N803        N  0.20599481  0.50695617  0.87062359    -0.43100
N804        N  0.18871748  0.67695398  0.48722091    -0.43100
C805        C  0.42447104  0.58094796  0.81017700     0.00500
C806        C  0.38827918  0.55013567  0.82867454    -0.11400
C807        C  0.36378658  0.56711253  0.84422000     0.02700
C808        C  0.37626720  0.61619901  0.84176444     0.00400
C809        C  0.41207095  0.64687903  0.82295384    -0.11300
C810        C  0.43639571  0.62974161  0.80727364     0.02600
H811        H  0.37860306  0.51240909  0.83064726     0.15600
H812        H  0.42220222  0.68477099  0.82126392     0.15600
C813        C  0.47545343  0.66364274  0.78980245     0.37200
C814        C  0.32601862  0.53321934  0.86236133     0.37200
N815        N  0.00488218  0.69211934  0.77692124    -0.43100
N816        N  0.29625925  0.50552298  0.87700171    -0.43100
C817        C  0.37872014  0.76027806  0.84259063     0.00500
C818        C  0.42579941  0.79751560  0.84799912    -0.11400
C819        C  0.44696408  0.84187338  0.83361975     0.02700
C820        C  0.42134922  0.84902611  0.81273295     0.00400
C821        C  0.37508812  0.81156901  0.80672009    -0.11300
C822        C  0.35360324  0.76762860  0.82131095     0.02600
H823        H  0.44639913  0.79181793  0.86334502     0.15600
H824        H  0.35538399  0.81681698  0.79049539     0.15600
C825        C  0.30578295  0.73178273  0.81351152     0.37200
C826        C  0.99322034  0.87835615  0.84144047     0.37200
N827        N  0.26785219  0.70488851  0.80562798    -0.43100
N828        N  0.03188052  0.90792017  0.84684311    -0.43100
C829        C  0.23650955  0.61876522  0.84416276     0.00500
C830        C  0.23011461  0.58740157  0.82229709    -0.11400
C831        C  0.18980052  0.56847443  0.80545095     0.02700
C832        C  0.15463758  0.58069441  0.81042357     0.00400
C833        C  0.16102353  0.61214609  0.83220860    -0.11300
C834        C  0.20194141  0.63211973  0.84859896     0.02600
H835        H  0.25654504  0.57721775  0.81855868     0.15600
H836        H  0.13479675  0.62267418  0.83573373     0.15600
C837        C  0.20969928  0.66988715  0.86772219     0.37200
C838        C  0.18453523  0.53514571  0.78387162     0.37200
N839        N  0.21581978  0.70056821  0.88271312    -0.43100
N840        N  0.18033467  0.50836267  0.76662619    -0.43100
C841        C  0.82930908  0.16842193  0.34895253     0.46100
H842        H  0.83031956  0.16975642  0.32603212    -0.02900
C843        C  0.82769007  0.16638224  0.40262104     0.46200
H844        H  0.82772911  0.16625037  0.42554242    -0.02900
C845        C  0.85488945  0.21926741  0.36205757    -0.16600
C846        C  0.77846754  0.14336622  0.36131916    -0.16400
C847        C  0.85227608  0.14095357  0.36159910    -0.16700
C848        C  0.85393507  0.21791236  0.39030912    -0.16700
C849        C  0.77777291  0.14067657  0.38976785    -0.16300
C850        C  0.85226110  0.14109306  0.39003406    -0.16600
C851        C  0.66477182  0.33775445  0.15138180     0.46100
H852        H  0.66309200  0.33494140  0.17425065    -0.02900
C853        C  0.66744538  0.34333514  0.09775157     0.46200
H854        H  0.66807543  0.34556375  0.07487523    -0.02900
C855        C  0.71575973  0.36518232  0.13939603    -0.16600
C856        C  0.64026105  0.28805951  0.13702140    -0.16400
C857        C  0.64018556  0.36394171  0.13990775    -0.16700
C858        C  0.71722886  0.36821090  0.11096340    -0.16700
C859        C  0.64154201  0.29069086  0.10866607    -0.16300
C860        C  0.64174604  0.36695069  0.11153148    -0.16600
O861        O  0.98132300  0.40789622  0.46666405    -0.77800
C862        C  0.60598425  0.05314641  0.45622093     0.83200
O863        O  0.53621925  0.47266051  0.05751402    -0.79000
O864        O  0.55423552  0.11937243  0.01557829    -0.80400
O865        O  0.91706132  0.01714980  0.46341482    -0.80200
O866        O  0.91399786  0.40889434  0.46597777    -0.78900
Zn867      Zn  0.52700640  0.46389981  0.49066788     1.55700
O868        O  0.98839793  0.08489404  0.46072109    -0.80300
Cd869      Cd  0.93010876  0.46968256  0.48863881     1.59700
Cd870      Cd  0.99869327  0.00311097  0.04073319     1.59600
O871        O  0.88755144  0.45066067  0.02000288    -0.80300
O872        O  0.99388262  0.00053125  0.49974133    -1.90800
Cd873      Cd  0.53242584  0.06977457  0.48526649     1.59900
O874        O  0.93248950  0.46848148  0.05757825    -0.80200
O875        O  0.59049970  0.08098420  0.46277750    -0.78900
C876        C  0.55117332  0.44736995  0.04581065     0.83700
C877        C  0.93811604  0.38949848  0.45918959     0.83300
O878        O  0.58417678  0.00835528  0.46316003    -0.77800
C879        C  0.94422901  0.06068363  0.45489951     0.84100
O880        O  0.54845194  0.44069604  0.01980330    -0.77900
C881        C  0.89190383  0.45052488  0.04609560     0.84300
C882        C  0.55138384  0.11602102  0.04182469     0.84600
O883        O  0.53149840  0.07503635  0.05432142    -0.80300
O884        O  0.51051370  0.09768058  0.21570387    -0.77800
C885        C  0.88779649  0.45189102  0.20512133     0.83200
O886        O  0.96007975  0.03492495  0.30877163    -0.79000
O887        O  0.93877716  0.38862409  0.26830841    -0.80400
O888        O  0.57278564  0.48715678  0.21307372    -0.80200
O889        O  0.57713485  0.09582318  0.21127885    -0.78900
Zn890      Zn  0.96400907  0.03806286  0.23835228     1.55700
O891        O  0.50195493  0.41880676  0.21140047    -0.80300
Cd892      Cd  0.56314340  0.03712519  0.23596606     1.59700
Cd893      Cd  0.99720317  0.00347101  0.29251902     1.59600
O894        O  0.61250079  0.06129886  0.26720258    -0.80300
O895        O  0.99526796  0.00393187  0.25108309    -1.90800
Cd896      Cd  0.96139994  0.43727450  0.23566929     1.59900
O897        O  0.56900614  0.04148446  0.30594175    -0.80200
O898        O  0.90272387  0.42411307  0.21298877    -0.78900
C899        C  0.94181173  0.05701135  0.29681875     0.83900
C900        C  0.55239262  0.11513170  0.20587274     0.83300
O901        O  0.90872559  0.49643977  0.21202009    -0.77800
C902        C  0.54615610  0.44332368  0.20513851     0.84100
O903        O  0.94210332  0.06113406  0.27064183    -0.77900
C904        C  0.60917775  0.06059166  0.29341636     0.84300
C905        C  0.94099573  0.39358118  0.29442699     0.84600
O906        O  0.96067274  0.43507612  0.30597286    -0.80300
C907        C  0.57275030  0.16124256  0.05822199     0.00500
C908        C  0.61917741  0.19875687  0.05179334    -0.11400
C909        C  0.64207056  0.24120008  0.06761535     0.02700
C910        C  0.61794033  0.24729935  0.09015002     0.00400
C911        C  0.57049442  0.21053209  0.09564906    -0.11300
C912        C  0.54816969  0.16750935  0.08028845     0.02600
H913        H  0.63830700  0.19412749  0.03486432     0.15600
H914        H  0.55079858  0.21523632  0.11218009     0.15600
C915        C  0.99875901  0.13228363  0.08639234     0.37200
C916        C  0.69107337  0.27616843  0.06084113     0.37200
N917        N  0.95901079  0.10399953  0.09066282    -0.43100
N918        N  0.73030350  0.30302368  0.05458555    -0.43100
C919        C  0.76215187  0.38993884  0.09413461     0.00500
C920        C  0.79618413  0.37681241  0.10005931    -0.11400
C921        C  0.83915482  0.39685460  0.08518969     0.02700
C922        C  0.84815226  0.42960345  0.06327940     0.00400
C923        C  0.81385442  0.44184330  0.05688427    -0.11300
C924        C  0.77146596  0.42287460  0.07217104     0.02600
H925        H  0.78895795  0.35035460  0.11621937     0.15600
H926        H  0.82060640  0.46709151  0.04006455     0.15600
C927        C  0.73918126  0.43916860  0.06505997     0.37200
C928        C  0.87236852  0.38153551  0.09198939     0.37200
N929        N  0.71409430  0.45289689  0.05865378    -0.43100
N930        N  0.89895756  0.36918788  0.09739980    -0.43100
C931        C  0.57323704  0.42595185  0.06280526     0.00500
C932        C  0.60630900  0.45477134  0.08295895    -0.11400
C933        C  0.62986847  0.43687421  0.09863396     0.02700
C934        C  0.61913914  0.38859010  0.09489973     0.00400
C935        C  0.58604914  0.35976430  0.07476861    -0.11300
C936        C  0.56318708  0.37799269  0.05870418     0.02600
H937        H  0.61496595  0.49198350  0.08580957     0.15600
H938        H  0.57760056  0.32263184  0.07183603     0.15600
C939        C  0.52831371  0.34619499  0.03888401     0.37200
C940        C  0.66692728  0.46976550  0.11706822     0.37200
N941        N  0.50027774  0.32073839  0.02303635    -0.43100
N942        N  0.69678708  0.49645908  0.13166238    -0.43100
C943        C  0.61665734  0.24225184  0.15328315     0.00500
C944        C  0.58006106  0.23430627  0.17158161    -0.11400
C945        C  0.55778414  0.19283144  0.18844246     0.02700
C946        C  0.57294847  0.15865311  0.18753284     0.00400
C947        C  0.60944785  0.16665500  0.16886573    -0.11300
C948        C  0.63111708  0.20781907  0.15171016     0.02600
H949        H  0.56890232  0.26080892  0.17270807     0.15600
H950        H  0.62150880  0.14089860  0.16781011     0.15600
C951        C  0.67051329  0.21577476  0.13430138     0.37200
C952        C  0.52047879  0.18740193  0.20686300     0.37200
N953        N  0.70232614  0.22231120  0.12053710    -0.43100
N954        N  0.49041419  0.18320288  0.22142780    -0.43100
C955        C  0.84418528  0.43116253  0.18820141     0.00500
C956        C  0.80789947  0.38312014  0.19348613    -0.11400
C957        C  0.76561790  0.36129854  0.17847561     0.02700
C958        C  0.75903946  0.38752026  0.15718536     0.00400
C959        C  0.79518537  0.43610956  0.15221996    -0.11300
C960        C  0.83760470  0.45787641  0.16727030     0.02600
H961        H  0.81241485  0.36247468  0.20973078     0.15600
H962        H  0.79042096  0.45706091  0.13630125     0.15600
C963        C  0.87453734  0.50671463  0.15988038     0.37200
C964        C  0.73055373  0.31185422  0.18569565     0.37200
N965        N  0.90423591  0.54575515  0.15384809    -0.43100
N966        N  0.70382965  0.27255024  0.19297220    -0.43100
C967        C  0.61494437  0.38146882  0.15810616     0.00500
C968        C  0.56735318  0.36728296  0.15259483    -0.11400
C969        C  0.54385432  0.38628974  0.16768837     0.02700
C970        C  0.56803907  0.42028049  0.18891242     0.00400
C971        C  0.61492346  0.43302702  0.19499808    -0.11300
C972        C  0.63818000  0.41369095  0.18017918     0.02600
H973        H  0.54866197  0.34177820  0.13611765     0.15600
H974        H  0.63368153  0.45842107  0.21152787     0.15600
C975        C  0.68662512  0.42963908  0.18759843     0.37200
C976        C  0.49579975  0.37192793  0.16008932     0.37200
N977        N  0.72530913  0.44325398  0.19435528    -0.43100
N978        N  0.45728503  0.36038557  0.15395203    -0.43100
C979        C  0.87634501  0.12196637  0.40759686     0.00500
C980        C  0.92408380  0.13654209  0.40196111    -0.11400
C981        C  0.94740322  0.11770325  0.41714424     0.02700
C982        C  0.92279816  0.08362564  0.43855805     0.00400
C983        C  0.87564349  0.07024131  0.44464799    -0.11300
C984        C  0.85246976  0.08918528  0.42967211     0.02600
H985        H  0.94307146  0.16232854  0.38539007     0.15600
H986        H  0.85656069  0.04456374  0.46128091     0.15600
C987        C  0.80349514  0.07196666  0.43692676     0.37200
C988        C  0.99568370  0.13235564  0.40947937     0.37200
N989        N  0.76437309  0.05690018  0.44368566    -0.43100
N990        N  0.53796609  0.15431109  0.40843789    -0.43100
C991        C  0.91567188  0.34476216  0.44200441     0.00500
C992        C  0.94512662  0.33124442  0.42822772    -0.11400
C993        C  0.92575406  0.29011156  0.41133151     0.02700
C994        C  0.87611002  0.26158504  0.40799496     0.00400
C995        C  0.84658414  0.27404387  0.42210931    -0.11300
C996        C  0.86558653  0.31516765  0.43886133     0.02600
H997        H  0.98349202  0.35302651  0.43042910     0.15600
H998        H  0.80839737  0.25212023  0.41953548     0.15600
C999        C  0.83235283  0.32512661  0.45273615     0.37200
C1000       C  0.95731810  0.27725864  0.39804196     0.37200
N1001       N  0.80547043  0.33285175  0.46374610    -0.43100
N1002       N  0.98254620  0.26683081  0.38741700    -0.43100
C1003       C  0.73427182  0.11531512  0.40748964     0.00500
C1004       C  0.73125367  0.14022496  0.43039469    -0.11400
C1005       C  0.69010261  0.12032695  0.44667808     0.02700
C1006       C  0.65098756  0.07395205  0.44044588     0.00400
C1007       C  0.65517331  0.04722059  0.41891867    -0.11300
C1008       C  0.69652478  0.06727827  0.40255789     0.02600
H1009       H  0.76071694  0.17593671  0.43531948     0.15600
H1010       H  0.62588151  0.01080728  0.41468137     0.15600
C1011       C  0.70003576  0.03678697  0.38200345     0.37200
C1012       C  0.68959024  0.14777381  0.47014030     0.37200
N1013       N  0.70227378  0.01182444  0.36563545    -0.43100
N1014       N  0.68594188  0.17780718  0.98399660    -0.43100
C1015       C  0.91932905  0.07852250  0.31351861     0.00500
C1016       C  0.88489348  0.04998090  0.33352716    -0.11400
C1017       C  0.86093995  0.06853538  0.34853104     0.02700
C1018       C  0.87268018  0.11724730  0.34433619     0.00400
C1019       C  0.90618906  0.14499862  0.32378371    -0.11300
C1020       C  0.92972187  0.12639366  0.30862219     0.02600
H1021       H  0.87566984  0.01266248  0.33684005     0.15600
H1022       H  0.91476611  0.18135559  0.31982687     0.15600
C1023       C  0.96620156  0.15816313  0.28911838     0.37200
C1024       C  0.82293621  0.03586841  0.36695783     0.37200
N1025       N  0.51374635  0.18908532  0.28599182    -0.43100
N1026       N  0.79253859  0.00900810  0.38157118    -0.43100
C1027       C  0.87698579  0.26493772  0.34528957     0.00500
C1028       C  0.91658200  0.27638314  0.32856411    -0.11400
C1029       C  0.93723166  0.31752031  0.31134728     0.02700
C1030       C  0.91992738  0.34961521  0.31189719     0.00400
C1031       C  0.88130215  0.33922319  0.32910813    -0.11300
C1032       C  0.85903530  0.29672779  0.34522988     0.02600
H1033       H  0.93195408  0.25396416  0.32924433     0.15600
H1034       H  0.86754781  0.36360978  0.32925339     0.15600
C1035       C  0.81699247  0.28642856  0.36053745     0.37200
C1036       C  0.45515050  0.31069067  0.28479653     0.37200
N1037       N  0.78351494  0.28006361  0.37243741    -0.43100
N1038       N  0.48014132  0.31318823  0.26704233    -0.43100
C1039       C  0.73556667  0.12496706  0.34337950     0.00500
C1040       C  0.73234778  0.09732552  0.32015785    -0.11400
C1041       C  0.69194097  0.07658480  0.30335891     0.02700
C1042       C  0.65334539  0.08292673  0.30985360     0.00400
C1043       C  0.65695402  0.11151894  0.33251823    -0.11300
C1044       C  0.69782318  0.13346496  0.34883608     0.02600
H1045       H  0.76089880  0.09054370  0.31558825     0.15600
H1046       H  0.62794898  0.11758896  0.33717131     0.15600
C1047       C  0.69961664  0.16523449  0.37038835     0.37200
C1048       C  0.69020343  0.04722707  0.28033988     0.37200
N1049       N  0.69904466  0.18980615  0.38763412    -0.43100
N1050       N  0.68887147  0.02377030  0.26187307    -0.43100
C1051       C  0.82893833  0.16586745  0.84831718     0.46100
H1052       H  0.82930978  0.16528050  0.82541664    -0.02900
C1053       C  0.82907213  0.16637083  0.90199908     0.46200
H1054       H  0.82935258  0.16723859  0.92491046    -0.02900
C1055       C  0.85575993  0.21748361  0.86048752    -0.16600
C1056       C  0.77864027  0.14176951  0.86106260    -0.16400
C1057       C  0.85203419  0.13904578  0.86125757    -0.16700
C1058       C  0.85598048  0.21751061  0.88893039    -0.16700
C1059       C  0.77874798  0.14100850  0.88946370    -0.16300
C1060       C  0.85260657  0.13970083  0.88967062    -0.16600
C1061       C  0.66406731  0.33551655  0.65320688     0.46100
H1062       H  0.66202385  0.33130246  0.67601260    -0.02900
C1063       C  0.66724513  0.34372791  0.59963209     0.46200
H1064       H  0.66813399  0.34710901  0.57680405    -0.02900
C1065       C  0.71503763  0.36485344  0.64160278    -0.16600
C1066       C  0.64123323  0.28683183  0.63797149    -0.16400
C1067       C  0.63843522  0.36091031  0.64219572    -0.16700
C1068       C  0.71670397  0.36916543  0.61325086    -0.16700
C1069       C  0.64239841  0.29071538  0.60971270    -0.16300
C1070       C  0.64033202  0.36540527  0.61389669    -0.16600
O1071       O  0.98473080  0.41112414  0.96303169    -0.77800
C1072       C  0.60701287  0.05491114  0.95625779     0.83200
O1073       O  0.53382048  0.47242368  0.56098598    -0.79000
O1074       O  0.55791635  0.12002080  0.51673957    -0.80400
O1075       O  0.91868968  0.01695304  0.96406387    -0.80200
O1076       O  0.91711484  0.41136625  0.96391118    -0.78900
Zn1077     Zn  0.52873961  0.46594723  0.98744502     1.55700
O1078       O  0.98978937  0.08494665  0.96054256    -0.80300
Cd1079     Cd  0.93486613  0.47206592  0.98735997     1.59700
Cd1080     Cd  0.99474001  0.00249720  0.54100596     1.59600
O1081       O  0.88369594  0.44868961  0.52153439    -0.80300
O1082       O  0.99772177  0.00195457  0.99938970    -1.90800
Cd1083     Cd  0.53058550  0.06836363  0.98429143     1.59900
O1084       O  0.92965675  0.46935132  0.55887665    -0.80200
O1085       O  0.59003787  0.08162537  0.96238017    -0.78900
C1086       C  0.54934688  0.44728464  0.54973283     0.83700
C1087       C  0.94124750  0.39260680  0.95599378     0.83300
O1088       O  0.58622484  0.01022826  0.96343057    -0.77800
C1089       C  0.94541565  0.06025840  0.95512049     0.84100
O1090       O  0.54750547  0.44070831  0.52373113    -0.77900
C1091       C  0.88889581  0.45028739  0.54759439     0.84300
C1092       C  0.55313668  0.11626148  0.54288561     0.84600
O1093       O  0.53070721  0.07501583  0.55507417    -0.80300
O1094       O  0.50936787  0.09289971  0.71226629    -0.77800
C1095       C  0.88751058  0.45404847  0.70733848     0.83200
O1096       O  0.96128493  0.03690601  0.80754277    -0.79000
O1097       O  0.94001375  0.39054048  0.76845641    -0.80400
O1098       O  0.57475958  0.48747874  0.71261154    -0.80200
O1099       O  0.57681221  0.09226170  0.70953351    -0.78900
Zn1100     Zn  0.96410869  0.03817499  0.73757243     1.55700
O1101       O  0.50253685  0.42071345  0.71033195    -0.80300
Cd1102     Cd  0.56221192  0.03453963  0.73538770     1.59700
Cd1103     Cd  0.99760378  0.00464520  0.79181127     1.59600
O1104       O  0.61177669  0.05965625  0.76708919    -0.80300
O1105       O  0.99489630  0.00369790  0.75044601    -1.90800
Cd1106     Cd  0.96242277  0.43896365  0.73587043     1.59900
O1107       O  0.56823127  0.04422270  0.80543979    -0.80200
O1108       O  0.90304481  0.42630173  0.71413161    -0.78900
C1109       C  0.94359622  0.05950363  0.79558923     0.83900
C1110       C  0.55163491  0.11071518  0.70317039     0.83300
O1111       O  0.90918781  0.49852921  0.71442429    -0.77800
C1112       C  0.54688022  0.44401595  0.70454467     0.84100
O1113       O  0.94371193  0.06353753  0.76943388    -0.77900
C1114       C  0.60847873  0.06120611  0.79326806     0.84300
C1115       C  0.94655380  0.39473911  0.79443990     0.84600
O1116       O  0.96967011  0.43608090  0.80607562    -0.80300
C1117       C  0.57456370  0.16133900  0.55942140     0.00500
C1118       C  0.62008269  0.20003778  0.55218634    -0.11400
C1119       C  0.64261560  0.24272736  0.56783380     0.02700
C1120       C  0.61882134  0.24793209  0.59081957     0.00400
C1121       C  0.57197610  0.21031021  0.59682612    -0.11300
C1122       C  0.55041005  0.16680843  0.58202063     0.02600
H1123       H  0.63886222  0.19620804  0.53477343     0.15600
H1124       H  0.55227577  0.21449336  0.61354206     0.15600
C1125       C  0.99949285  0.12693511  0.59140647     0.37200
C1126       C  0.69083312  0.27914173  0.56035435     0.37200
N1127       N  0.96178711  0.09628175  0.59810215    -0.43100
N1128       N  0.72941913  0.30750887  0.55366978    -0.43100
C1129       C  0.76155935  0.39180453  0.59674882     0.00500
C1130       C  0.79515156  0.37798123  0.60220362    -0.11400
C1131       C  0.83735663  0.39723297  0.58680762     0.02700
C1132       C  0.84598657  0.43014948  0.56510179     0.00400
C1133       C  0.81234003  0.44349608  0.55934609    -0.11300
C1134       C  0.77053714  0.42500224  0.57502145     0.02600
H1135       H  0.78789258  0.35115028  0.61814044     0.15600
H1136       H  0.81903019  0.46893199  0.54264079     0.15600
C1137       C  0.73827101  0.44152037  0.56831934     0.37200
C1138       C  0.86985730  0.38056201  0.59262502     0.37200
N1139       N  0.71320907  0.45539149  0.56212485    -0.43100
N1140       N  0.89580229  0.36702305  0.59717818    -0.43100
C1141       C  0.57067067  0.42542476  0.56708744     0.00500
C1142       C  0.60529675  0.45436021  0.58655433    -0.11400
C1143       C  0.62904194  0.43594863  0.60170464     0.02700
C1144       C  0.61742614  0.38740186  0.59785082     0.00400
C1145       C  0.58231849  0.35829868  0.57874441    -0.11300
C1146       C  0.55876685  0.37673725  0.56351799     0.02600
H1147       H  0.61500452  0.49192692  0.58921411     0.15600
H1148       H  0.57272839  0.32075545  0.57606750     0.15600
C1149       C  0.52113319  0.34440194  0.54519059     0.37200
C1150       C  0.66700728  0.46826214  0.61986213     0.37200
N1151       N  0.49073517  0.31843395  0.53064762    -0.43100
N1152       N  0.69764595  0.49412146  0.63430551    -0.43100
C1153       C  0.61779487  0.24038796  0.65332331     0.00500
C1154       C  0.57848098  0.22980454  0.66983810    -0.11400
C1155       C  0.55477641  0.18671889  0.68511115     0.02700
C1156       C  0.57221243  0.15433960  0.68508906     0.00400
C1157       C  0.61118078  0.16473674  0.66790379    -0.11300
C1158       C  0.63346740  0.20696982  0.65166132     0.02600
H1159       H  0.56579492  0.25511634  0.67040586     0.15600
H1160       H  0.62446652  0.13997335  0.66722023     0.15600
C1161       C  0.67402597  0.21667799  0.63479731     0.37200
C1162       C  0.51286217  0.17735258  0.70043370     0.37200
N1163       N  0.70666421  0.22461605  0.62138444    -0.43100
N1164       N  0.47885957  0.16985588  0.71222760    -0.43100
C1165       C  0.84280225  0.43325107  0.69118086     0.00500
C1166       C  0.80885375  0.38373261  0.69473558    -0.11400
C1167       C  0.76655987  0.36118694  0.67970997     0.02700
C1168       C  0.75804273  0.38782945  0.65962590     0.00400
C1169       C  0.79149913  0.43778267  0.65645382    -0.11300
C1170       C  0.83319229  0.46076404  0.67224201     0.02600
H1171       H  0.81512989  0.36240721  0.70969202     0.15600
H1172       H  0.78477191  0.45902288  0.64169045     0.15600
C1173       C  0.86562495  0.51225186  0.66812949     0.37200
C1174       C  0.73329630  0.31069894  0.68577614     0.37200
N1175       N  0.89137018  0.55360712  0.66494119    -0.43100
N1176       N  0.70794269  0.27057558  0.69220783    -0.43100
C1177       C  0.61281643  0.37741614  0.66051429     0.00500
C1178       C  0.56608589  0.36501631  0.65391050    -0.11400
C1179       C  0.54361172  0.38616100  0.66776766     0.02700
C1180       C  0.56762794  0.41946812  0.68922101     0.00400
C1181       C  0.61292724  0.42934765  0.69694464    -0.11300
C1182       C  0.63543532  0.40846897  0.68309549     0.02600
H1183       H  0.54766523  0.33996190  0.63721069     0.15600
H1184       H  0.63106185  0.45380978  0.71395617     0.15600
C1185       C  0.68226575  0.42137328  0.69232419     0.37200
C1186       C  0.49736318  0.37532341  0.65841751     0.37200
N1187       N  0.71938601  0.43239009  0.70087553    -0.43100
N1188       N  0.46041126  0.36676140  0.65077333    -0.43100
C1189       C  0.87656622  0.12003777  0.90714293     0.00500
C1190       C  0.92317661  0.13170617  0.90034200    -0.11400
C1191       C  0.94672499  0.11345980  0.91578031     0.02700
C1192       C  0.92337835  0.08226423  0.93847776     0.00400
C1193       C  0.87700177  0.07072404  0.94537501    -0.11300
C1194       C  0.85371425  0.08949346  0.93023099     0.02600
H1195       H  0.94162657  0.15569259  0.88299416     0.15600
H1196       H  0.85877566  0.04689772  0.96285647     0.15600
C1197       C  0.80576246  0.07480661  0.93856143     0.37200
C1198       C  0.99407121  0.12598357  0.90724546     0.37200
N1199       N  0.76753226  0.06219143  0.94616811    -0.43100
N1200       N  0.52660986  0.12324345  0.89649625    -0.43100
C1201       C  0.91833664  0.34789118  0.93856433     0.00500
C1202       C  0.94076494  0.32063899  0.93615243    -0.11400
C1203       C  0.92094703  0.27814775  0.92042906     0.02700
C1204       C  0.87794099  0.26211948  0.90620304     0.00400
C1205       C  0.85532133  0.28904253  0.90836779    -0.11300
C1206       C  0.87477050  0.33135767  0.92441311     0.02600
H1207       H  0.97404783  0.33238046  0.94672349     0.15600
H1208       H  0.82220046  0.27681537  0.89749217     0.15600
C1209       C  0.84924814  0.35700709  0.92554089     0.37200
C1210       C  0.94717132  0.25342864  0.91831855     0.37200
N1211       N  0.82859380  0.37737268  0.92648232    -0.43100
N1212       N  0.97003956  0.23550778  0.91704022    -0.43100
C1213       C  0.73519001  0.11723747  0.90711767     0.00500
C1214       C  0.73075061  0.14455339  0.92816910    -0.11400
C1215       C  0.68961664  0.12480296  0.94463784     0.02700
C1216       C  0.65206508  0.07651767  0.94029369     0.00400
C1217       C  0.65758435  0.04837655  0.92021901    -0.11300
C1218       C  0.69868593  0.06813611  0.90373144     0.02600
H1219       H  0.75915919  0.18184198  0.93137306     0.15600
H1220       H  0.62943229  0.01092641  0.91717882     0.15600
C1221       C  0.70303058  0.03641628  0.88444743     0.37200
C1222       C  0.68758943  0.15432745  0.96643443     0.37200
N1223       N  0.70563047  0.01037528  0.86903863    -0.43100
N1224       N  0.68931205  0.16971242  0.48898436    -0.43100
C1225       C  0.92096902  0.08049883  0.81240580     0.00500
C1226       C  0.88548095  0.05048920  0.83150380    -0.11400
C1227       C  0.86128773  0.06803519  0.84695867     0.02700
C1228       C  0.87349424  0.11699773  0.84388692     0.00400
C1229       C  0.90877270  0.14688219  0.82461300    -0.11300
C1230       C  0.93260182  0.12913530  0.80895998     0.02600
H1231       H  0.87593708  0.01287089  0.83391957     0.15600
H1232       H  0.91872748  0.18465429  0.82238531     0.15600
C1233       C  0.97070756  0.16232737  0.79073993     0.37200
C1234       C  0.82375869  0.03468047  0.86541144     0.37200
N1235       N  0.50050503  0.18746988  0.77441271    -0.43100
N1236       N  0.79412692  0.00738399  0.88026180    -0.43100
C1237       C  0.87933328  0.26243197  0.84282625     0.00500
C1238       C  0.92614227  0.29968723  0.84885301    -0.11400
C1239       C  0.94876747  0.34339730  0.83374516     0.02700
C1240       C  0.92509572  0.34984279  0.81139316     0.00400
C1241       C  0.87948777  0.31200410  0.80450215    -0.11300
C1242       C  0.85639342  0.26888713  0.81990921     0.02600
H1243       H  0.94551484  0.29454065  0.86520922     0.15600
H1244       H  0.86120418  0.31659200  0.78719282     0.15600
C1245       C  0.80894053  0.23314818  0.81140351     0.37200
C1246       C  0.49696171  0.37929453  0.84076099     0.37200
N1247       N  0.77138736  0.20609254  0.80306718    -0.43100
N1248       N  0.53530674  0.40904313  0.84662320    -0.43100
C1249       C  0.73499388  0.12240279  0.84363598     0.00500
C1250       C  0.72891882  0.09095503  0.82188693    -0.11400
C1251       C  0.68853848  0.07141394  0.80503723     0.02700
C1252       C  0.65261167  0.08259139  0.81004702     0.00400
C1253       C  0.65912937  0.11488988  0.83141509    -0.11300
C1254       C  0.70041998  0.13587937  0.84760266     0.02600
H1255       H  0.75559700  0.08107111  0.81827909     0.15600
H1256       H  0.63267147  0.12513976  0.83480485     0.15600
C1257       C  0.70851669  0.17444483  0.86619858     0.37200
C1258       C  0.68422748  0.03880081  0.78325509     0.37200
N1259       N  0.71524992  0.20585829  0.88076436    -0.43100
N1260       N  0.68085207  0.01281315  0.76572397    -0.43100
C1261       C  0.82385096  0.66194420  0.34859627     0.46100
H1262       H  0.82357158  0.66175706  0.32568767    -0.02900
C1263       C  0.82528555  0.66141677  0.40225698     0.46200
H1264       H  0.82612996  0.66189788  0.42516666    -0.02900
C1265       C  0.85025819  0.71328381  0.36108015    -0.16600
C1266       C  0.77388676  0.63681011  0.36183873    -0.16400
C1267       C  0.84803189  0.63570121  0.36075403    -0.16700
C1268       C  0.85084062  0.71277409  0.38949102    -0.16700
C1269       C  0.77467946  0.63562815  0.39020199    -0.16300
C1270       C  0.84926176  0.63568193  0.38916272    -0.16600
C1271       C  0.66376284  0.83938850  0.15217806     0.46100
H1272       H  0.66142564  0.83722889  0.17505289    -0.02900
C1273       C  0.66721956  0.84379055  0.09852706     0.46200
H1274       H  0.66811598  0.84545531  0.07564549    -0.02900
C1275       C  0.71498061  0.86553393  0.14056191    -0.16600
C1276       C  0.63859060  0.78937031  0.13812244    -0.16400
C1277       C  0.64069965  0.86654155  0.13989047    -0.16700
C1278       C  0.71677761  0.86798269  0.11206349    -0.16700
C1279       C  0.64007874  0.79144591  0.10978769    -0.16300
C1280       C  0.64243096  0.86876711  0.11154595    -0.16600
O1281       O  0.97521589  0.90579589  0.46376363    -0.77800
C1282       C  0.60628154  0.55186025  0.45955809     0.83200
O1283       O  0.53691098  0.97260636  0.05579905    -0.79000
O1284       O  0.55367283  0.61943631  0.01758754    -0.80400
O1285       O  0.91772646  0.51490924  0.46428347    -0.80200
O1286       O  0.90877293  0.90828376  0.46252486    -0.78900
Zn1287     Zn  0.52568388  0.96522101  0.48639502     1.55700
O1288       O  0.98866378  0.58219226  0.45892323    -0.80300
Cd1289     Cd  0.92714838  0.96902639  0.48634204     1.59700
Cd1290     Cd  0.00181598  0.50630325  0.04175009     1.59600
O1291       O  0.88436366  0.94688644  0.02000144    -0.80300
O1292       O  0.99698375  0.50228875  0.50166174    -1.90800
Cd1293     Cd  0.53025149  0.56698254  0.48658841     1.59900
O1294       O  0.93023237  0.96473331  0.05717437    -0.80200
O1295       O  0.58933213  0.57885548  0.46495901    -0.78900
C1296       C  0.55180315  0.94733974  0.04401882     0.83700
C1297       C  0.93233492  0.88821542  0.45585138     0.83300
O1298       O  0.58583583  0.50763145  0.46762748    -0.77800
C1299       C  0.94414710  0.55727508  0.45400728     0.84100
O1300       O  0.54838713  0.94029172  0.01803127    -0.77900
C1301       C  0.88942100  0.94660526  0.04603672     0.84300
C1302       C  0.54946931  0.61581709  0.04378064     0.84600
O1303       O  0.52935924  0.57470178  0.05616092    -0.80300
O1304       O  0.50873215  0.59488252  0.21364442    -0.77800
C1305       C  0.88601662  0.95095261  0.20739494     0.83200
O1306       O  0.95888121  0.53788344  0.30567227    -0.79000
O1307       O  0.93686903  0.88715801  0.26955920    -0.80400
O1308       O  0.57412139  0.99009130  0.21268641    -0.80200
O1309       O  0.57650042  0.59494836  0.21101648    -0.78900
Zn1310     Zn  0.96508239  0.53967358  0.23586576     1.55700
O1311       O  0.50350350  0.92157945  0.21128436    -0.80300
Cd1312     Cd  0.56136066  0.53520460  0.23584332     1.59700
Cd1313     Cd  0.99572655  0.50586190  0.29087932     1.59600
O1314       O  0.60835183  0.55799466  0.26866159    -0.80300
O1315       O  0.99615286  0.50574998  0.24946438    -1.90800
Cd1316     Cd  0.96003387  0.93579582  0.23695477     1.59900
O1317       O  0.56284404  0.53766316  0.30668067    -0.80200
O1318       O  0.90126233  0.92309597  0.21450662    -0.78900
C1319       C  0.94043376  0.55932225  0.29331746     0.83900
C1320       C  0.55125516  0.61346486  0.20476666     0.83300
O1321       O  0.90674463  0.99519309  0.21490571    -0.77800
C1322       C  0.54752743  0.94642675  0.20466895     0.84100
O1323       O  0.94137338  0.56336421  0.26713125    -0.77900
C1324       C  0.60360024  0.55640821  0.29487460     0.84300
C1325       C  0.94280271  0.89118283  0.29560926     0.84600
O1326       O  0.96575694  0.93245375  0.30739161    -0.80300
C1327       C  0.57050035  0.66108728  0.06011992     0.00500
C1328       C  0.61669063  0.69870682  0.05333077    -0.11400
C1329       C  0.63983628  0.74129889  0.06894118     0.02700
C1330       C  0.61612417  0.74767185  0.09157184     0.00400
C1331       C  0.56873129  0.71092472  0.09735617    -0.11300
C1332       C  0.54626104  0.66751614  0.08232038     0.02600
H1333       H  0.63556874  0.69399360  0.03628376     0.15600
H1334       H  0.54917731  0.71592307  0.11383874     0.15600
C1335       C  0.00350732  0.63248994  0.08979812     0.37200
C1336       C  0.68868105  0.77615197  0.06178362     0.37200
N1337       N  0.96496190  0.60253018  0.09555516    -0.43100
N1338       N  0.72774972  0.80296159  0.05520914    -0.43100
C1339       C  0.76156019  0.88905068  0.09526982     0.00500
C1340       C  0.79571955  0.87627469  0.10157462    -0.11400
C1341       C  0.83827213  0.89540011  0.08636591     0.02700
C1342       C  0.84627664  0.92625846  0.06359091     0.00400
C1343       C  0.81191587  0.93817651  0.05693649    -0.11300
C1344       C  0.77028916  0.92062130  0.07265104     0.02600
H1345       H  0.78900944  0.85096926  0.11832559     0.15600
H1346       H  0.81813734  0.96232133  0.03959380     0.15600
C1347       C  0.73829646  0.93706530  0.06513614     0.37200
C1348       C  0.87221365  0.88144445  0.09392684     0.37200
N1349       N  0.71366389  0.95103616  0.05818601    -0.43100
N1350       N  0.89945107  0.87031621  0.10003293    -0.43100
C1351       C  0.57461099  0.92659990  0.06101608     0.00500
C1352       C  0.60755569  0.95597355  0.08110088    -0.11400
C1353       C  0.63116895  0.93862961  0.09720191     0.02700
C1354       C  0.62010313  0.89008259  0.09430362     0.00400
C1355       C  0.58746699  0.86083774  0.07407666    -0.11300
C1356       C  0.56513004  0.87875597  0.05727237     0.02600
H1357       H  0.61623499  0.99328367  0.08348480     0.15600
H1358       H  0.57917256  0.82368354  0.07151172     0.15600
C1359       C  0.53176286  0.84686182  0.03687968     0.37200
C1360       C  0.66937838  0.97264147  0.11464992     0.37200
N1361       N  0.50516333  0.82127554  0.02048562    -0.43100
N1362       N  0.70047043  0.00056094  0.12814870    -0.43100
C1363       C  0.61588074  0.74352612  0.15432759     0.00500
C1364       C  0.57573548  0.73179798  0.17039476    -0.11400
C1365       C  0.55276580  0.68876047  0.18596564     0.02700
C1366       C  0.57184169  0.65772944  0.18686811     0.00400
C1367       C  0.61199984  0.66965537  0.17037679    -0.11300
C1368       C  0.63342659  0.71157628  0.15378060     0.02600
H1369       H  0.56166088  0.75593509  0.17023361     0.15600
H1370       H  0.62674194  0.64614131  0.17034834     0.15600
C1371       C  0.67496382  0.72253729  0.13752487     0.37200
C1372       C  0.50948702  0.67765432  0.20033350     0.37200
N1373       N  0.70832327  0.73160236  0.12449964    -0.43100
N1374       N  0.47434647  0.66863237  0.21132272    -0.43100
C1375       C  0.84247898  0.93074511  0.19045872     0.00500
C1376       C  0.80501835  0.88357320  0.19637656    -0.11400
C1377       C  0.76290761  0.86216599  0.18116340     0.02700
C1378       C  0.75798047  0.88765871  0.15873382     0.00400
C1379       C  0.79537983  0.93552024  0.15322049    -0.11300
C1380       C  0.83732053  0.95708081  0.16873625     0.02600
H1381       H  0.80843879  0.86341899  0.21334955     0.15600
H1382       H  0.79182763  0.95624544  0.13666232     0.15600
C1383       C  0.87518005  0.00538509  0.16115891     0.37200
C1384       C  0.72610132  0.81415023  0.18966779     0.37200
N1385       N  0.90557612  0.04404169  0.15502792    -0.43100
N1386       N  0.69782288  0.77622426  0.19812101    -0.43100
C1387       C  0.61634799  0.88548111  0.15740904     0.00500
C1388       C  0.56800986  0.86904160  0.15294826    -0.11400
C1389       C  0.54446612  0.88787880  0.16805972     0.02700
C1390       C  0.56955302  0.92409555  0.18808727     0.00400
C1391       C  0.61765271  0.93982799  0.19272975    -0.11300
C1392       C  0.64093585  0.92065526  0.17792576     0.02600
H1393       H  0.54870346  0.84164838  0.13741102     0.15600
H1394       H  0.63731945  0.96727825  0.20818932     0.15600
C1395       C  0.69066700  0.93984238  0.18359554     0.37200
C1396       C  0.49523277  0.87061689  0.16183926     0.37200
N1397       N  0.73050424  0.95660709  0.18885669    -0.43100
N1398       N  0.45574470  0.85667316  0.15681588    -0.43100
C1399       C  0.87356555  0.61555800  0.40600517     0.00500
C1400       C  0.92027084  0.62772420  0.39898086    -0.11400
C1401       C  0.94434495  0.60973154  0.41423272     0.02700
C1402       C  0.92138165  0.57815900  0.43689340     0.00400
C1403       C  0.87482352  0.56596576  0.44384069    -0.11300
C1404       C  0.85110161  0.58454081  0.42897496     0.02600
H1405       H  0.93851796  0.65227397  0.38180536     0.15600
H1406       H  0.85686535  0.54205479  0.46133343     0.15600
C1407       C  0.80326435  0.56955660  0.43770328     0.37200
C1408       C  0.99201934  0.62341598  0.40573004     0.37200
N1409       N  0.76520199  0.55670866  0.44571982    -0.43100
N1410       N  0.52785300  0.62804083  0.39942503    -0.43100
C1411       C  0.90976079  0.84302767  0.43889497     0.00500
C1412       C  0.93110258  0.81455967  0.43853036    -0.11400
C1413       C  0.91209348  0.77187720  0.42308572     0.02700
C1414       C  0.87127789  0.75706055  0.40692896     0.00400
C1415       C  0.84948477  0.78496232  0.40722808    -0.11300
C1416       C  0.86788768  0.82729772  0.42318153     0.02600
H1417       H  0.96285755  0.82544663  0.45055501     0.15600
H1418       H  0.81780336  0.77343945  0.39500024     0.15600
C1419       C  0.84307478  0.85369283  0.42269539     0.37200
C1420       C  0.93658280  0.74526146  0.42362730     0.37200
N1421       N  0.82289055  0.87456651  0.42238663    -0.43100
N1422       N  0.95765772  0.72539476  0.42471251    -0.43100
C1423       C  0.73173098  0.61235307  0.40832828     0.00500
C1424       C  0.72866313  0.64014490  0.42961099    -0.11400
C1425       C  0.68857354  0.62086300  0.44689252     0.02700
C1426       C  0.65067594  0.57259835  0.44311852     0.00400
C1427       C  0.65472806  0.54400705  0.42274029    -0.11300
C1428       C  0.69477369  0.56331483  0.40539730     0.02600
H1429       H  0.75737409  0.67742817  0.43241442     0.15600
H1430       H  0.62615474  0.50662349  0.42007644     0.15600
C1431       C  0.69753870  0.53115491  0.38573924     0.37200
C1432       C  0.68793785  0.65087442  0.46886381     0.37200
N1433       N  0.69868971  0.50460628  0.37008394    -0.43100
N1434       N  0.69234714  0.68315131  0.98437232    -0.43100
C1435       C  0.91632059  0.57907348  0.30984648     0.00500
C1436       C  0.88105030  0.54837429  0.32889955    -0.11400
C1437       C  0.85695996  0.56532628  0.34495095     0.02700
C1438       C  0.86923405  0.61436592  0.34263918     0.00400
C1439       C  0.90381519  0.64477135  0.32317220    -0.11300
C1440       C  0.92735889  0.62756574  0.30680361     0.02600
H1441       H  0.87181826  0.51079720  0.33093805     0.15600
H1442       H  0.91346259  0.68250529  0.32134591     0.15600
C1443       C  0.96459078  0.66112424  0.28825247     0.37200
C1444       C  0.81939037  0.53140602  0.36320528     0.37200
N1445       N  0.49284121  0.68629029  0.27375320    -0.43100
N1446       N  0.78957173  0.50382561  0.37786355    -0.43100
C1447       C  0.87397265  0.75859517  0.34375448     0.00500
C1448       C  0.92101564  0.79529550  0.34979892    -0.11400
C1449       C  0.94424447  0.83895889  0.33464382     0.02700
C1450       C  0.92071090  0.84614785  0.31249076     0.00400
C1451       C  0.87463974  0.80898635  0.30575962    -0.11300
C1452       C  0.85112526  0.76572781  0.32105800     0.02600
H1453       H  0.94006660  0.78963320  0.36618444     0.15600
H1454       H  0.85644530  0.81415702  0.28861672     0.15600
C1455       C  0.80339055  0.73038637  0.31274429     0.37200
C1456       C  0.49688540  0.87301213  0.33970392     0.37200
N1457       N  0.76556051  0.70335742  0.30475517    -0.43100
N1458       N  0.53633434  0.90102228  0.34451262    -0.43100
C1459       C  0.72989213  0.61707272  0.34487005     0.00500
C1460       C  0.72296371  0.58443338  0.32366473    -0.11400
C1461       C  0.68198292  0.56412694  0.30735988     0.02700
C1462       C  0.64694091  0.57657837  0.31204755     0.00400
C1463       C  0.65409969  0.60978031  0.33296677    -0.11300
C1464       C  0.69558280  0.63085323  0.34893892     0.02600
H1465       H  0.74927151  0.57398666  0.32021577     0.15600
H1466       H  0.62803175  0.62062370  0.33614263     0.15600
C1467       C  0.70400166  0.66955738  0.36750993     0.37200
C1468       C  0.67578703  0.52908490  0.28665506     0.37200
N1469       N  0.71087463  0.70098705  0.38209978    -0.43100
N1470       N  0.67062522  0.50087317  0.27010314    -0.43100
C1471       C  0.82831492  0.66297944  0.84887182     0.46100
H1472       H  0.82752508  0.66223337  0.82597144    -0.02900
C1473       C  0.83110902  0.66401975  0.90249948     0.46200
H1474       H  0.83248666  0.66542349  0.92537665    -0.02900
C1475       C  0.85443590  0.71466095  0.86096615    -0.16600
C1476       C  0.77864649  0.63767897  0.86253066    -0.16400
C1477       C  0.85328879  0.63754460  0.86104385    -0.16700
C1478       C  0.85578803  0.71487341  0.88936342    -0.16700
C1479       C  0.78024579  0.63766244  0.89091247    -0.16300
C1480       C  0.85531162  0.63843828  0.88944444    -0.16600
C1481       C  0.66257837  0.83804430  0.65172390     0.46100
H1482       H  0.66032848  0.83451196  0.67455287    -0.02900
C1483       C  0.66556643  0.84523114  0.59819138     0.46200
H1484       H  0.66664219  0.84847542  0.57536569    -0.02900
C1485       C  0.71362629  0.86637975  0.64011119    -0.16600
C1486       C  0.63913687  0.78896764  0.63681206    -0.16400
C1487       C  0.63757772  0.86389936  0.64044900    -0.16700
C1488       C  0.71501247  0.87003035  0.61172029    -0.16700
C1489       C  0.63999779  0.79236551  0.60851655    -0.16300
C1490       C  0.63931163  0.86787076  0.61212798    -0.16600
O1491       O  0.97994130  0.90884192  0.96254607    -0.77800
C1492       C  0.61124670  0.55677525  0.95970980     0.83200
O1493       O  0.53408657  0.97197108  0.55629411    -0.79000
O1494       O  0.55397257  0.61843099  0.51732622    -0.80400
O1495       O  0.92458806  0.51859332  0.96338401    -0.80200
O1496       O  0.91240185  0.90949984  0.96252831    -0.78900
Zn1497     Zn  0.52724200  0.96538129  0.98602522     1.55700
O1498       O  0.99565962  0.58656380  0.95916120    -0.80300
Cd1499     Cd  0.93034657  0.96963164  0.98671088     1.59700
Cd1500     Cd  0.99824804  0.50603580  0.54293617     1.59600
O1501       O  0.88082683  0.94722218  0.51931389    -0.80300
O1502       O  0.00186722  0.50476903  0.00035954    -1.90800
Cd1503     Cd  0.53349278  0.56953832  0.98601710     1.59900
O1504       O  0.92623074  0.96451907  0.55672850    -0.80200
O1505       O  0.59511378  0.58414349  0.96602854    -0.78900
C1506       C  0.54977463  0.94741771  0.54451525     0.83700
C1507       C  0.93665743  0.89052948  0.95518424     0.83300
O1508       O  0.58889894  0.51164103  0.96604164    -0.77800
C1509       C  0.95131821  0.56132752  0.95371118     0.84100
O1510       O  0.54726261  0.94108409  0.51847586    -0.77900
C1511       C  0.88569954  0.94685268  0.54534804     0.84300
C1512       C  0.55001732  0.61599890  0.54353133     0.84600
O1513       O  0.52917305  0.57544022  0.55652552    -0.80300
O1514       O  0.51282368  0.59476206  0.71177439    -0.77800
C1515       C  0.88486733  0.95159544  0.70695866     0.83200
O1516       O  0.96436922  0.53844448  0.80651895    -0.79000
O1517       O  0.93458872  0.88788770  0.76976916    -0.80400
O1518       O  0.57100169  0.98471706  0.71355485    -0.80200
O1519       O  0.58142809  0.59623916  0.70986505    -0.78900
Zn1520     Zn  0.96852613  0.54137815  0.73658008     1.55700
O1521       O  0.49947657  0.91698691  0.71267384    -0.80300
Cd1522     Cd  0.56617744  0.53702046  0.73508261     1.59700
Cd1523     Cd  0.00120566  0.50674201  0.79089949     1.59600
O1524       O  0.61479746  0.55949655  0.76748196    -0.80300
O1525       O  0.99943547  0.50714855  0.74956410    -1.90800
Cd1526     Cd  0.95811481  0.93535625  0.73675122     1.59900
O1527       O  0.56972812  0.54250209  0.80533648    -0.80200
O1528       O  0.89962140  0.92338897  0.71422220    -0.78900
C1529       C  0.94751461  0.56188635  0.79462068     0.83900
C1530       C  0.55554308  0.61380551  0.70319699     0.83300
O1531       O  0.90622229  0.99595510  0.71428937    -0.77800
C1532       C  0.54358343  0.94071701  0.70625798     0.84100
O1533       O  0.94889942  0.56726715  0.76851256    -0.77900
C1534       C  0.61031016  0.55947221  0.79368443     0.84300
C1535       C  0.94167046  0.89250481  0.79570718     0.84600
O1536       O  0.96570280  0.93399690  0.80713755    -0.80300
C1537       C  0.57100193  0.66192274  0.55920909     0.00500
C1538       C  0.61575185  0.70092128  0.55109393    -0.11400
C1539       C  0.63841920  0.74420030  0.56618113     0.02700
C1540       C  0.61581233  0.74932764  0.58981893     0.00400
C1541       C  0.56935902  0.71152224  0.59651969    -0.11300
C1542       C  0.54736876  0.66779392  0.58192479     0.02600
H1543       H  0.63384600  0.69696118  0.53336084     0.15600
H1544       H  0.55024781  0.71583379  0.61353362     0.15600
C1545       C  0.00128763  0.63031420  0.59059155     0.37200
C1546       C  0.68534878  0.78150477  0.55715085     0.37200
N1547       N  0.96444267  0.59920280  0.59819461    -0.43100
N1548       N  0.72266648  0.81073866  0.54904333    -0.43100
C1549       C  0.75929952  0.89092751  0.59490642     0.00500
C1550       C  0.79147210  0.87508381  0.59984820    -0.11400
C1551       C  0.83335464  0.89325000  0.58424563     0.02700
C1552       C  0.84275880  0.92681831  0.56276064     0.00400
C1553       C  0.81031887  0.94195231  0.55747577    -0.11300
C1554       C  0.76907269  0.92477697  0.57346221     0.02600
H1555       H  0.78355705  0.84799770  0.61574654     0.15600
H1556       H  0.81772726  0.96806896  0.54104605     0.15600
C1557       C  0.73838840  0.94362764  0.56761945     0.37200
C1558       C  0.86491568  0.87533048  0.58989153     0.37200
N1559       N  0.71455657  0.95939827  0.56228692    -0.43100
N1560       N  0.89006639  0.86080313  0.59445510    -0.43100
C1561       C  0.57217267  0.92643286  0.56163232     0.00500
C1562       C  0.60184863  0.95414629  0.58335313    -0.11400
C1563       C  0.62487047  0.93652778  0.59974948     0.02700
C1564       C  0.61636361  0.88915313  0.59542041     0.00400
C1565       C  0.58678844  0.86152285  0.57364968    -0.11300
C1566       C  0.56526648  0.87989352  0.55656035     0.02600
H1567       H  0.60853281  0.99053176  0.58685455     0.15600
H1568       H  0.58047346  0.82532365  0.56995424     0.15600
C1569       C  0.53557613  0.84980056  0.53436304     0.37200
C1570       C  0.65980262  0.96935456  0.61918445     0.37200
N1571       N  0.51200517  0.82578849  0.51648240    -0.43100
N1572       N  0.68807570  0.99633268  0.63443376    -0.43100
C1573       C  0.61725831  0.74281079  0.65250459     0.00500
C1574       C  0.57918731  0.73215342  0.67012713    -0.11400
C1575       C  0.55744208  0.68965015  0.68599193     0.02700
C1576       C  0.57542784  0.65772610  0.68529543     0.00400
C1577       C  0.61351241  0.66844465  0.66727150    -0.11300
C1578       C  0.63399778  0.71024665  0.65058350     0.02600
H1579       H  0.56597684  0.75699907  0.67117598     0.15600
H1580       H  0.62732625  0.64415943  0.66618443     0.15600
C1581       C  0.67373648  0.72038101  0.63284190     0.37200
C1582       C  0.51686875  0.68039184  0.70266899     0.37200
N1583       N  0.70557191  0.72862741  0.61858933    -0.43100
N1584       N  0.48386847  0.67297521  0.71553883    -0.43100
C1585       C  0.84122619  0.93158378  0.69004640     0.00500
C1586       C  0.80412812  0.88403005  0.69554934    -0.11400
C1587       C  0.76223773  0.86243797  0.68014037     0.02700
C1588       C  0.75688432  0.88832785  0.65809742     0.00400
C1589       C  0.79387111  0.93656463  0.65298197    -0.11300
C1590       C  0.83577849  0.95817178  0.66856941     0.02600
H1591       H  0.80776905  0.86355151  0.71225107     0.15600
H1592       H  0.79004596  0.95754733  0.63669115     0.15600
C1593       C  0.87335744  0.00676217  0.66127299     0.37200
C1594       C  0.72627130  0.81357576  0.68784866     0.37200
N1595       N  0.90358028  0.04563975  0.65538417    -0.43100
N1596       N  0.69862797  0.77482780  0.69553494    -0.43100
C1597       C  0.61206249  0.88015148  0.65893774     0.00500
C1598       C  0.56397239  0.86439888  0.65401068    -0.11400
C1599       C  0.54008635  0.88229157  0.66960668     0.02700
C1600       C  0.56470487  0.91688589  0.69045862     0.00400
C1601       C  0.61195020  0.93068441  0.69613404    -0.11300
C1602       C  0.63552691  0.91241571  0.68090874     0.02600
H1603       H  0.54530421  0.83869263  0.63760842     0.15600
H1604       H  0.63091997  0.95650290  0.71245837     0.15600
C1605       C  0.68468729  0.93021061  0.68751444     0.37200
C1606       C  0.49122024  0.86615817  0.66296802     0.37200
N1607       N  0.72397652  0.94561854  0.69364560    -0.43100
N1608       N  0.45200707  0.85313358  0.65770114    -0.43100
C1609       C  0.88042571  0.61923126  0.90631297     0.00500
C1610       C  0.92593389  0.62890461  0.89802069    -0.11400
C1611       C  0.94963447  0.60989840  0.91268207     0.02700
C1612       C  0.92872797  0.58231561  0.93686654     0.00400
C1613       C  0.88395449  0.57335722  0.94542483    -0.11300
C1614       C  0.85967688  0.59110233  0.93049727     0.02600
H1615       H  0.94323248  0.65143850  0.88001947     0.15600
H1616       H  0.86759578  0.55202519  0.96400650     0.15600
C1617       C  0.81294560  0.57800717  0.94046559     0.37200
C1618       C  0.99363226  0.61654719  0.90152850     0.37200
N1619       N  0.77586111  0.56689305  0.94946261    -0.43100
N1620       N  0.53304041  0.62754667  0.89673752    -0.43100
C1621       C  0.91428535  0.84547727  0.93826019     0.00500
C1622       C  0.93384891  0.81547278  0.93951687    -0.11400
C1623       C  0.91485594  0.77261909  0.92427882     0.02700
C1624       C  0.87606051  0.75936316  0.90659814     0.00400
C1625       C  0.85594486  0.78879893  0.90535908    -0.11300
C1626       C  0.87421427  0.83124199  0.92117407     0.02600
H1627       H  0.96401152  0.82519719  0.95278460     0.15600
H1628       H  0.82565238  0.77836326  0.89206598     0.15600
C1629       C  0.85125965  0.85934773  0.91908582     0.37200
C1630       C  0.93699819  0.74389907  0.92693174     0.37200
N1631       N  0.83239602  0.88143917  0.91742240    -0.43100
N1632       N  0.95593110  0.72212544  0.92986751    -0.43100
C1633       C  0.73786830  0.61543837  0.90943774     0.00500
C1634       C  0.73450993  0.64446253  0.92986163    -0.11400
C1635       C  0.69408254  0.62613067  0.94688997     0.02700
C1636       C  0.65636051  0.57746286  0.94381674     0.00400
C1637       C  0.66122194  0.54774962  0.92452958    -0.11300
C1638       C  0.70144002  0.56616669  0.90745268     0.02600
H1639       H  0.76304713  0.68200725  0.93200336     0.15600
H1640       H  0.63301318  0.51007455  0.92238739     0.15600
C1641       C  0.70487770  0.53306134  0.88886534     0.37200
C1642       C  0.69294545  0.65771109  0.96768984     0.37200
N1643       N  0.70671830  0.50584569  0.87405715    -0.43100
N1644       N  0.68749719  0.67481316  0.48654988    -0.43100
C1645       C  0.92390884  0.58185770  0.81141512     0.00500
C1646       C  0.88816308  0.55094198  0.83014735    -0.11400
C1647       C  0.86325556  0.56750846  0.84572391     0.02700
C1648       C  0.87468691  0.61626177  0.84299107     0.00400
C1649       C  0.90994482  0.64695989  0.82390680    -0.11300
C1650       C  0.93480211  0.63030126  0.80829878     0.02600
H1651       H  0.87923860  0.51348111  0.83234046     0.15600
H1652       H  0.91940073  0.68462749  0.82201749     0.15600
C1653       C  0.97345663  0.66444672  0.79068521     0.37200
C1654       C  0.82646128  0.53369179  0.86438728     0.37200
N1655       N  0.50719383  0.69116683  0.77617273    -0.43100
N1656       N  0.79758115  0.50615203  0.87950283    -0.43100
C1657       C  0.87679016  0.75969775  0.84347153     0.00500
C1658       C  0.92338102  0.79745288  0.84945911    -0.11400
C1659       C  0.94504713  0.84140554  0.83463546     0.02700
C1660       C  0.92045522  0.84780240  0.81279179     0.00400
C1661       C  0.87480017  0.80968374  0.80612855    -0.11300
C1662       C  0.85281260  0.76607452  0.82111842     0.02600
H1663       H  0.94321486  0.79249877  0.86566752     0.15600
H1664       H  0.85585131  0.81422341  0.78917649     0.15600
C1665       C  0.80558695  0.72951392  0.81271528     0.37200
C1666       C  0.49556265  0.87847165  0.83984107     0.37200
N1667       N  0.76818509  0.70158476  0.80453763    -0.43100
N1668       N  0.53452387  0.90781765  0.84479549    -0.43100
C1669       C  0.73430270  0.61717258  0.84576016     0.00500
C1670       C  0.72748494  0.58428675  0.82470215    -0.11400
C1671       C  0.68747599  0.56514344  0.80758564     0.02700
C1672       C  0.65328456  0.57906507  0.81125364     0.00400
C1673       C  0.65992795  0.61181814  0.83236162    -0.11300
C1674       C  0.70034212  0.63159210  0.84922038     0.02600
H1675       H  0.75337480  0.57311859  0.82181098     0.15600
H1676       H  0.63423981  0.62329307  0.83505795     0.15600
C1677       C  0.70812004  0.66981160  0.86799779     0.37200
C1678       C  0.68129063  0.52965896  0.78719731     0.37200
N1679       N  0.71424711  0.70078061  0.88275894    -0.43100
N1680       N  0.67621703  0.50101410  0.77096516    -0.43100
loop_ 
_geom_bond_atom_site_label_1 
_geom_bond_atom_site_label_2 
_geom_bond_distance 
_geom_bond_site_symmetry_2 
_ccdc_geom_bond_type 
C1            H2   1.111       .  S
C1            C7   1.549       .  S
C1            C6   1.543       .  S
C1            C5   1.541       .  S
C3            H4   1.111       .  S
C3            C9   1.542       .  S
C3            C8   1.538       .  S
C3           C10   1.529       .  S
C5            C8   1.376       .  D
C5          C187   1.496       .  S
C6            C9   1.381       .  D
C6          C199   1.497       .  S
C7           C10   1.372       .  D
C7          C178   1.497       .  S
C8          C154   1.487       .  S
C9          C163   1.494       .  S
C10         C139   1.486       .  S
C11          H12   1.109       .  S
C11          C17   1.533       .  S
C11          C16   1.536       .  S
C11          C15   1.539       .  S
C13          H14   1.110       .  S
C13          C19   1.535       .  S
C13          C18   1.541       .  S
C13          C20   1.543       .  S
C15          C18   1.381       .  D
C15         C118   1.495       .  S
C16          C19   1.371       .  D
C16         C103   1.476       .  S
C17          C20   1.377       .  D
C17         C127   1.496       .  S
C18          C79   1.494       .  S
C19          C70   1.497       .  S
C20          C94   1.488       .  S
O21          C37   1.275       .  A
O21        Zn867   2.031       .  S
C22          O38   1.275       .  A
C22          O35   1.273       .  A
C22         C166   1.472       .  S
O23          C36   1.277       .  A
O23       Cd1290   2.077       .  S
O24          C42   1.274       .  A
O24        Cd243   2.069   1_554  S
O25          C39   1.274       .  A
O25        Cd449   2.054   1_545  S
O26          C37   1.274       .  A
O26         Cd29   2.063       .  S
Zn27        O861   2.027   1_455  S
Zn27        O458   2.026       .  S
Zn27        O250   2.025       .  S
Zn27       O1292   1.945   1_455  S
O28          C39   1.274       .  A
O28        Cd873   2.072       .  S
Cd29        O445   2.072       .  S
Cd29        O241   2.050       .  S
Cd29        O452   1.990       .  S
Cd30       O1283   2.071   1_545  S
Cd30        O454   2.070   1_545  S
Cd30        O883   2.080       .  S
Cd30        O242   2.004   1_554  S
O31          C41   1.275       .  A
O31        Cd239   2.064   1_554  S
O32       Zn1287   1.945   1_545  S
O32        Cd449   1.990   1_545  S
O32        Cd240   2.002       .  S
O32        Cd873   1.997       .  S
Cd33         O35   2.049       .  S
Cd33        O234   2.068       .  S
Cd33        O868   2.073   1_455  S
Cd33        O872   1.997   1_455  S
O34          C41   1.275       .  A
O34        Cd450   2.072       .  S
C36          O40   1.274       .  A
C36          C91   1.480       .  S
C37         C151   1.489       .  S
O38        Zn447   2.019   1_545  S
C39         C142   1.482       .  S
O40        Zn237   2.016   1_554  S
C41          C82   1.475       .  S
C42          O43   1.276       .  A
C42          C67   1.479       .  S
O43        Cd870   2.081   1_455  S
O44          C60   1.272       .  A
O44        Zn890   2.006   1_455  S
C45          O61   1.272       .  A
C45          O58   1.275       .  A
C45         C115   1.476       .  S
O46          C59   1.278       .  A
O46         Cd53   2.096       .  S
O47          C65   1.274       .  A
O47         Cd56   2.066       .  S
O48          C62   1.277       .  A
O48        Cd472   2.080       .  S
O49          C60   1.275       .  A
O49         Cd52   2.066       .  S
Zn50         O63   2.024       .  S
Zn50        O884   2.011       .  S
Zn50        O481   2.021   1_545  S
Zn50         O55   1.947       .  S
O51          C62   1.274       .  A
O51        Cd896   2.071   1_455  S
Cd52         O54   2.065       .  S
Cd52        O468   2.056   1_545  S
Cd52        O895   1.994   1_455  S
Cd53        O897   2.082       .  S
Cd53        O486   2.085   1_545  S
Cd53         O55   2.008       .  S
O54          C64   1.274       .  A
O55        Cd892   1.996       .  S
O55        Cd476   2.001   1_545  S
Cd56         O58   2.064       .  S
Cd56        O891   2.082       .  S
Cd56        O475   2.002       .  S
O57          C64   1.278       .  A
O57        Cd893   2.088   1_455  S
C59          O63   1.275       .  A
C59         C175   1.482       .  S
C60         C106   1.487       .  S
O61        Zn470   2.008       .  S
C62         C130   1.486       .  S
C64         C202   1.482       .  S
C65          O66   1.275       .  A
C65         C190   1.476       .  S
O66        Cd473   2.075       .  S
C67          C68   1.401       .  A
C67          C72   1.410       .  A
C68          C69   1.401       .  A
C68          H73   1.085       .  S
C69          C70   1.415       .  A
C69          C76   1.441       .  S
C70          C71   1.407       .  A
C71          C72   1.402       .  A
C71          H74   1.084       .  S
C72         C915   1.444   1_455  S
C75         C912   1.444       .  S
C75          N77   1.157       .  T
C76          N78   1.156       .  T
C79          C80   1.409       .  A
C79          C84   1.414       .  A
C80          C81   1.401       .  A
C80          H85   1.084       .  S
C81          C82   1.410       .  A
C81          C88   1.444       .  S
C82          C83   1.400       .  A
C83          C84   1.397       .  A
C83          H86   1.085       .  S
C84          C87   1.442       .  S
C87          N89   1.157       .  T
C88          N90   1.157       .  T
C91          C92   1.403       .  A
C91          C96   1.414       .  A
C92          C93   1.399       .  A
C92          H97   1.085       .  S
C93          C94   1.413       .  A
C93         C100   1.444       .  S
C94          C95   1.403       .  A
C95          C96   1.401       .  A
C95          H98   1.085       .  S
C96          C99   1.444       .  S
C99         N101   1.157       .  T
C100        N102   1.157       .  T
C103        C104   1.397       .  A
C103        C108   1.408       .  A
C104        C105   1.398       .  A
C104        H109   1.085       .  S
C105        C106   1.419       .  A
C105        C112   1.444       .  S
C106        C107   1.408       .  A
C107        C108   1.398       .  A
C107        H110   1.084       .  S
C108        C111   1.445       .  S
C111        N113   1.157       .  T
C112        N114   1.157   1_455  T
C115        C116   1.399       .  A
C115        C120   1.411       .  A
C116        C117   1.396       .  A
C116        H121   1.086       .  S
C117        C118   1.416       .  A
C117        C124   1.440       .  S
C118        C119   1.408       .  A
C119        C120   1.401       .  A
C119        H122   1.084       .  S
C120        C123   1.444       .  S
C123        N125   1.157       .  T
C124        N126   1.157       .  T
C127        C128   1.406       .  A
C127        C132   1.414       .  A
C128        C129   1.405       .  A
C128        H133   1.084       .  S
C129        C130   1.415       .  A
C129        C136   1.444   1_455  S
C130        C131   1.401       .  A
C131        C132   1.398       .  A
C131        H134   1.085       .  S
C132        C135   1.441       .  S
C135        N137   1.156       .  T
C136        N138   1.157       .  T
C139        C140   1.404       .  A
C139        C144   1.410       .  A
C140        C141   1.401       .  A
C140        H145   1.084       .  S
C141        C142   1.414       .  A
C141        C148   1.444       .  S
C142        C143   1.404       .  A
C143        C144   1.396       .  A
C143        H146   1.085       .  S
C144        C147   1.442       .  S
C147        N149   1.157       .  T
C148        N990   1.157       .  T
N150        C988   1.157   1_455  T
C151        C152   1.409       .  A
C151        C156   1.416       .  A
C152        C153   1.405       .  A
C152        H157   1.084       .  S
C153        C154   1.409       .  A
C153        C160   1.443       .  S
C154        C155   1.399       .  A
C155        C156   1.397       .  A
C155        H158   1.078       .  S
C156        C159   1.445       .  S
C159        N161   1.158       .  T
C160        N162   1.157       .  T
C163        C164   1.403       .  A
C163        C168   1.417       .  A
C164        C165   1.394       .  A
C164        H169   1.076       .  S
C165        C166   1.409       .  A
C165        C172   1.446       .  S
C166        C167   1.402       .  A
C167        C168   1.401       .  A
C167        H170   1.085       .  S
C168        C171   1.442       .  S
C171        N173   1.157       .  T
C172        N384   1.157       .  T
N174        C382   1.157       .  T
C175        C176   1.403       .  A
C175        C180   1.410       .  A
C176        C177   1.406       .  A
C176        H181   1.085       .  S
C177        C178   1.415       .  A
C177        C184   1.442       .  S
C178        C179   1.402       .  A
C179        C180   1.402       .  A
C179        H182   1.079       .  S
C180        C183   1.444       .  S
C183       N1025   1.157       .  T
C184        N186   1.157       .  T
N185       C1023   1.157       .  T
C187        C188   1.402       .  A
C187        C192   1.416       .  A
C188        C189   1.397       .  A
C188        H193   1.077       .  S
C189        C190   1.408       .  A
C189       C1036   1.445       .  S
C190        C191   1.401       .  A
C191        C192   1.403       .  A
C191        H194   1.085       .  S
C192        C195   1.441       .  S
C195        N197   1.157       .  T
C196       C1029   1.444       .  S
C196        N198   1.157   1_655  T
C199        C200   1.404       .  A
C199        C204   1.418       .  A
C200        C201   1.402       .  A
C200        H205   1.085       .  S
C201        C202   1.414       .  A
C201        C208   1.444       .  S
C202        C203   1.401       .  A
C203        C204   1.401       .  A
C203        H206   1.085       .  S
C204        C207   1.442       .  S
C207        N209   1.157       .  T
C208        N210   1.157       .  T
C211        H212   1.109       .  S
C211        C217   1.536       .  S
C211        C216   1.536       .  S
C211        C215   1.539       .  S
C213        H214   1.110       .  S
C213        C219   1.544       .  S
C213        C218   1.542       .  S
C213        C220   1.537       .  S
C215        C218   1.380       .  D
C215        C397   1.500       .  S
C216        C219   1.376       .  D
C216        C409   1.495       .  S
C217        C220   1.375       .  D
C217        C388   1.483       .  S
C218        C364   1.494       .  S
C219        C373   1.488       .  S
C220        C349   1.498       .  S
C221        H222   1.110       .  S
C221        C227   1.535       .  S
C221        C226   1.535       .  S
C221        C225   1.536       .  S
C223        H224   1.109       .  S
C223        C229   1.536       .  S
C223        C228   1.545       .  S
C223        C230   1.537       .  S
C225        C228   1.380       .  D
C225        C328   1.501       .  S
C226        C229   1.374       .  D
C226        C313   1.473       .  S
C227        C230   1.375       .  D
C227        C337   1.490       .  S
C228        C289   1.487       .  S
C229        C280   1.501       .  S
C230        C304   1.488       .  S
O231        C247   1.277       .  A
O231      Zn1077   2.044       .  S
C232        O248   1.276       .  A
C232        O245   1.273       .  A
C232        C376   1.480       .  S
O233        C246   1.275       .  A
O233      Cd1500   2.079   1_455  S
O234        C252   1.274       .  A
O235        C249   1.274       .  A
O235       Cd659   2.064   1_545  S
O236        C247   1.274       .  A
O236       Cd239   2.073       .  S
Zn237      O1071   2.038   1_455  S
Zn237       O668   2.024       .  S
Zn237      O1502   1.947   1_556  S
O238        C249   1.276       .  A
O238      Cd1083   2.078       .  S
Cd239       O655   2.060       .  S
Cd239       O662   1.991   1_556  S
Cd240      O1493   2.066   1_545  S
Cd240       O664   2.074   1_545  S
Cd240      O1093   2.079       .  S
O241        C251   1.272       .  A
O242      Zn1497   1.947   1_545  S
O242       Cd659   1.995   1_545  S
O242      Cd1083   1.999       .  S
Cd243      O1078   2.080   1_455  S
Cd243       O245   2.058       .  S
Cd243      O1082   2.001   1_455  S
O244        C251   1.275       .  A
O244       Cd660   2.074       .  S
C246        O250   1.275       .  A
C246        C301   1.481       .  S
C247        C361   1.494       .  S
O248       Zn657   2.031   1_545  S
C249        C352   1.482       .  S
C251        C292   1.470       .  S
C252        O253   1.275       .  A
C252        C277   1.483       .  S
O253      Cd1080   2.079   1_455  S
O254        C270   1.270       .  A
O254      Zn1100   1.987   1_455  S
C255        O271   1.273       .  A
C255        O268   1.275       .  A
C255        C325   1.489       .  S
O256        C269   1.275       .  A
O256       Cd263   2.072       .  S
O257        C275   1.274       .  A
O257       Cd266   2.057       .  S
O258        C272   1.274       .  A
O258       Cd682   2.059       .  S
O259        C270   1.275       .  A
O259       Cd262   2.069       .  S
Zn260      O1094   1.981       .  S
Zn260       O691   2.018   1_545  S
Zn260       O273   2.002       .  S
Zn260       O265   1.938       .  S
O261        C272   1.273       .  A
O261      Cd1106   2.063   1_455  S
Cd262       O678   2.063   1_545  S
Cd262       O264   2.073       .  S
Cd262      O1105   1.994   1_455  S
Cd263      O1107   2.091       .  S
Cd263       O696   2.073   1_545  S
Cd263       O265   2.004       .  S
O264        C274   1.275       .  A
O265      Cd1102   1.993       .  S
O265       Cd686   1.997   1_545  S
Cd266      O1101   2.063       .  S
Cd266       O268   2.073       .  S
Cd266       O685   1.995       .  S
O267        C274   1.277       .  A
O267      Cd1103   2.088   1_455  S
C269        O273   1.272       .  A
C269        C385   1.469       .  S
C270        C316   1.482       .  S
O271       Zn680   2.029       .  S
C272        C340   1.475       .  S
C274        C412   1.484       .  S
C275        O276   1.274       .  A
C275        C400   1.477       .  S
O276       Cd683   2.073       .  S
C277        C278   1.402       .  A
C277        C282   1.411       .  A
C278        C279   1.401       .  A
C278        H283   1.085       .  S
C279        C280   1.415       .  A
C279        C286   1.441       .  S
C280        C281   1.409       .  A
C281        C282   1.402       .  A
C281        H284   1.083       .  S
C282       C1125   1.444   1_455  S
C285       C1122   1.444       .  S
C285        N287   1.157       .  T
C286        N288   1.157       .  T
C289        C290   1.408       .  A
C289        C294   1.413       .  A
C290        C291   1.399       .  A
C290        H295   1.084       .  S
C291        C292   1.408       .  A
C291        C298   1.444       .  S
C292        C293   1.400       .  A
C293        C294   1.396       .  A
C293        H296   1.085       .  S
C294        C297   1.442       .  S
C297        N299   1.157       .  T
C298        N300   1.157       .  T
C301        C302   1.404       .  A
C301        C306   1.412       .  A
C302        C303   1.403       .  A
C302        H307   1.085       .  S
C303        C304   1.413       .  A
C303        C310   1.444       .  S
C304        C305   1.402       .  A
C305        C306   1.401       .  A
C305        H308   1.085       .  S
C306        C309   1.444       .  S
C309        N311   1.157   1_455  T
C310        N312   1.157       .  T
C313        C314   1.396       .  A
C313        C318   1.408       .  A
C314        C315   1.395       .  A
C314        H319   1.086       .  S
C315        C316   1.419       .  A
C315        C322   1.444       .  S
C316        C317   1.407       .  A
C317        C318   1.398       .  A
C317        H320   1.084       .  S
C318        C321   1.445       .  S
C321        N323   1.157       .  T
C322        N324   1.157   1_455  T
C325        C326   1.402       .  A
C325        C330   1.415       .  A
C326        C327   1.400       .  A
C326        H331   1.085       .  S
C327        C328   1.415       .  A
C327        C334   1.439       .  S
C328        C329   1.408       .  A
C329        C330   1.405       .  A
C329        H332   1.085       .  S
C330        C333   1.444       .  S
C333        N335   1.157       .  T
C334        N336   1.156       .  T
C337        C338   1.407       .  A
C337        C342   1.412       .  A
C338        C339   1.400       .  A
C338        H343   1.084       .  S
C339        C340   1.411       .  A
C339        C346   1.444   1_455  S
C340        C341   1.401       .  A
C341        C342   1.395       .  A
C341        H344   1.085       .  S
C342        C345   1.441       .  S
C345        N347   1.157       .  T
C346        N348   1.157       .  T
C349        C350   1.408       .  A
C349        C354   1.414       .  A
C350        C351   1.402       .  A
C350        H355   1.084       .  S
C351        C352   1.411       .  A
C351        C358   1.444       .  S
C352        C353   1.402       .  A
C353        C354   1.399       .  A
C353        H356   1.085       .  S
C354        C357   1.441       .  S
C357        N359   1.157       .  T
C358       N1200   1.157       .  T
N360       C1198   1.157   1_455  T
C361        C362   1.405       .  A
C361        C366   1.418       .  A
C362        C363   1.403       .  A
C362        H367   1.085       .  S
C363        C364   1.412       .  A
C363        C370   1.441       .  S
C364        C365   1.402       .  A
C365        C366   1.404       .  A
C365        H368   1.085       .  S
C366        C369   1.443       .  S
C369        N371   1.157       .  T
C370        N372   1.156       .  T
C373        C374   1.402       .  A
C373        C378   1.416       .  A
C374        C375   1.400       .  A
C374        H379   1.085       .  S
C375        C376   1.414       .  A
C375        C382   1.444       .  S
C376        C377   1.402       .  A
C377        C378   1.399       .  A
C377        H380   1.085       .  S
C378        C381   1.443       .  S
C381        N383   1.157       .  T
C385        C386   1.401       .  A
C385        C390   1.410       .  A
C386        C387   1.398       .  A
C386        H391   1.085       .  S
C387        C388   1.413       .  A
C387        C394   1.443       .  S
C388        C389   1.402       .  A
C389        C390   1.398       .  A
C389        H392   1.085       .  S
C390        C393   1.444       .  S
C393       N1235   1.157       .  T
C394        N396   1.157       .  T
N395       C1233   1.157   1_455  T
C397        C398   1.410       .  A
C397        C402   1.418       .  A
C398        C399   1.404       .  A
C398        H403   1.083       .  S
C399        C400   1.411       .  A
C399       C1246   1.444       .  S
C400        C401   1.397       .  A
C401        C402   1.395       .  A
C401        H404   1.086       .  S
C402        C405   1.440       .  S
C405        N407   1.156       .  T
C406       C1239   1.444       .  S
C406        N408   1.157   1_655  T
C409        C410   1.404       .  A
C409        C414   1.415       .  A
C410        C411   1.402       .  A
C410        H415   1.085       .  S
C411        C412   1.414       .  A
C411        C418   1.444       .  S
C412        C413   1.404       .  A
C413        C414   1.404       .  A
C413        H416   1.085       .  S
C414        C417   1.444       .  S
C417        N419   1.157       .  T
C418        N420   1.157       .  T
C421        H422   1.110       .  S
C421        C427   1.541       .  S
C421        C426   1.538       .  S
C421        C425   1.539       .  S
C423        H424   1.110       .  S
C423        C429   1.541       .  S
C423        C428   1.539       .  S
C423        C430   1.537       .  S
C425        C428   1.377       .  D
C425        C607   1.499       .  S
C426        C429   1.376       .  D
C426        C619   1.497       .  S
C427        C430   1.379       .  D
C427        C598   1.485       .  S
C428        C574   1.487       .  S
C429        C583   1.484       .  S
C430        C559   1.503       .  S
C431        H432   1.110       .  S
C431        C437   1.536       .  S
C431        C436   1.538       .  S
C431        C435   1.538       .  S
C433        H434   1.109       .  S
C433        C439   1.535       .  S
C433        C438   1.544       .  S
C433        C440   1.538       .  S
C435        C438   1.381       .  D
C435        C538   1.501       .  S
C436        C439   1.374       .  D
C436        C523   1.478       .  S
C437        C440   1.375       .  D
C437        C547   1.490       .  S
C438        C499   1.491       .  S
C439        C490   1.502       .  S
C440        C514   1.489       .  S
O441        C457   1.276       .  A
O441      Zn1287   2.027       .  S
C442        O458   1.276       .  A
C442        O455   1.272       .  A
C442        C586   1.475       .  S
O443        C456   1.275       .  A
O443       Cd870   2.068   1_465  S
O444        C462   1.275       .  A
O444       Cd663   2.074   1_554  S
O445        C459   1.275       .  A
O446        C457   1.273       .  A
O446       Cd449   2.071       .  S
Zn447      O1281   2.024   1_455  S
Zn447       O670   2.024       .  S
Zn447       O872   1.943   1_465  S
O448        C459   1.275       .  A
O448      Cd1293   2.084       .  S
Cd449       O661   2.053       .  S
Cd450       O863   2.073       .  S
Cd450      O1303   2.085       .  S
Cd450       O662   2.006       .  S
O451        C461   1.274       .  A
O451       Cd659   2.057   1_554  S
O452       Zn867   1.950       .  S
O452       Cd660   2.008       .  S
O452      Cd1293   1.999       .  S
Cd453       O654   2.057       .  S
Cd453      O1288   2.083   1_455  S
Cd453       O455   2.047       .  S
Cd453      O1292   1.998   1_455  S
O454        C461   1.274       .  A
C456        O460   1.276       .  A
C456        C511   1.480       .  S
C457        C571   1.493       .  S
C459        C562   1.487       .  S
O460       Zn657   2.029   1_554  S
C461        C502   1.473       .  S
C462        O463   1.277       .  A
C462        C487   1.483       .  S
O463      Cd1290   2.087       .  S
O464        C480   1.271       .  A
O464      Zn1310   1.996   1_455  S
C465        O481   1.274       .  A
C465        O478   1.275       .  A
C465        C535   1.480       .  S
O466        C479   1.274       .  A
O466       Cd473   2.071       .  S
O467        C485   1.276       .  A
O467       Cd476   2.068       .  S
O468        C482   1.274       .  A
O469        C480   1.278       .  A
O469       Cd472   2.083       .  S
Zn470      O1304   1.995       .  S
Zn470       O483   2.017       .  S
Zn470       O475   1.947       .  S
O471        C482   1.275       .  A
O471      Cd1316   2.077   1_455  S
Cd472       O474   2.081       .  S
Cd472      O1315   1.999   1_455  S
Cd473      O1317   2.087       .  S
Cd473       O475   2.008       .  S
O474        C484   1.277       .  A
O475      Cd1312   2.000       .  S
Cd476      O1311   2.081       .  S
Cd476       O478   2.069       .  S
O477        C484   1.278       .  A
O477      Cd1313   2.092   1_455  S
C479        O483   1.273       .  A
C479        C595   1.476       .  S
C480        C526   1.488       .  S
C482        C550   1.481       .  S
C484        C622   1.487       .  S
C485        O486   1.276       .  A
C485        C610   1.482       .  S
C487        C488   1.402       .  A
C487        C492   1.410       .  A
C488        C489   1.402       .  A
C488        H493   1.085       .  S
C489        C490   1.416       .  A
C489        C496   1.441       .  S
C490        C491   1.408       .  A
C491        C492   1.403       .  A
C491        H494   1.083       .  S
C492       C1335   1.444       .  S
C495       C1332   1.444       .  S
C495        N497   1.157       .  T
C496        N498   1.157       .  T
C499        C500   1.409       .  A
C499        C504   1.413       .  A
C500        C501   1.401       .  A
C500        H505   1.084       .  S
C501        C502   1.410       .  A
C501        C508   1.444       .  S
C502        C503   1.400       .  A
C503        C504   1.395       .  A
C503        H506   1.085       .  S
C504        C507   1.442       .  S
C507        N509   1.157       .  T
C508        N510   1.157       .  T
C511        C512   1.403       .  A
C511        C516   1.413       .  A
C512        C513   1.400       .  A
C512        H517   1.085       .  S
C513        C514   1.412       .  A
C513        C520   1.443       .  S
C514        C515   1.404       .  A
C515        C516   1.402       .  A
C515        H518   1.085       .  S
C516        C519   1.444       .  S
C519        N521   1.157       .  T
C520        N522   1.157   1_565  T
C523        C524   1.397       .  A
C523        C528   1.408       .  A
C524        C525   1.398       .  A
C524        H529   1.085       .  S
C525        C526   1.421       .  A
C525        C532   1.444       .  S
C526        C527   1.407       .  A
C527        C528   1.399       .  A
C527        H530   1.084       .  S
C528        C531   1.444       .  S
C531        N533   1.157       .  T
C532        N534   1.157   1_455  T
C535        C536   1.399       .  A
C535        C540   1.412       .  A
C536        C537   1.398       .  A
C536        H541   1.086       .  S
C537        C538   1.417       .  A
C537        C544   1.439       .  S
C538        C539   1.409       .  A
C539        C540   1.403       .  A
C539        H542   1.084       .  S
C540        C543   1.444   1_565  S
C543        N545   1.157       .  T
C544        N546   1.156       .  T
C547        C548   1.406       .  A
C547        C552   1.412       .  A
C548        C549   1.404       .  A
C548        H553   1.084       .  S
C549        C550   1.413       .  A
C549        C556   1.443   1_455  S
C550        C551   1.402       .  A
C551        C552   1.396       .  A
C551        H554   1.085       .  S
C552        C555   1.442       .  S
C555        N557   1.156       .  T
C556        N558   1.157       .  T
C559        C560   1.409       .  A
C559        C564   1.416       .  A
C560        C561   1.404       .  A
C560        H565   1.084       .  S
C561        C562   1.412       .  A
C561        C568   1.443       .  S
C562        C563   1.403       .  A
C563        C564   1.401       .  A
C563        H566   1.085       .  S
C564        C567   1.442       .  S
C567        N569   1.157       .  T
C568       N1410   1.157       .  T
N570       C1408   1.157   1_455  T
C571        C572   1.406       .  A
C571        C576   1.419       .  A
C572        C573   1.399       .  A
C572        H577   1.085       .  S
C573        C574   1.409       .  A
C573        C580   1.441       .  S
C574        C575   1.402       .  A
C575        C576   1.404       .  A
C575        H578   1.085       .  S
C576        C579   1.444       .  S
C579        N581   1.157       .  T
C580        N582   1.156       .  T
C583        C584   1.402       .  A
C583        C588   1.414       .  A
C584        C585   1.398       .  A
C584        H589   1.085       .  S
C585        C586   1.414       .  A
C585        C592   1.445       .  S
C586        C587   1.401       .  A
C587        C588   1.398       .  A
C587        H590   1.085       .  S
C588        C591   1.443       .  S
C591        N593   1.157       .  T
C592        N804   1.157       .  T
N594        C802   1.157       .  T
C595        C596   1.403       .  A
C595        C600   1.411       .  A
C596        C597   1.400       .  A
C596        H601   1.085       .  S
C597        C598   1.413       .  A
C597        C604   1.443       .  S
C598        C599   1.402       .  A
C599        C600   1.399       .  A
C599        H602   1.085       .  S
C600        C603   1.443       .  S
C603       N1445   1.157       .  T
C604        N606   1.157       .  T
N605       C1443   1.157       .  T
C607        C608   1.409       .  A
C607        C612   1.416       .  A
C608        C609   1.405       .  A
C608        H613   1.084       .  S
C609        C610   1.411       .  A
C609       C1456   1.444       .  S
C610        C611   1.399       .  A
C611        C612   1.398       .  A
C611        H614   1.085       .  S
C612        C615   1.440       .  S
C615        N617   1.156       .  T
C616       C1449   1.444       .  S
C616        N618   1.157   1_655  T
C619        C620   1.403       .  A
C619        C624   1.417       .  A
C620        C621   1.402       .  A
C620        H625   1.085       .  S
C621        C622   1.413       .  A
C621        C628   1.444       .  S
C622        C623   1.404       .  A
C623        C624   1.406       .  A
C623        H626   1.085       .  S
C624        C627   1.444       .  S
C627        N629   1.157       .  T
C628        N630   1.157       .  T
C631        H632   1.111       .  S
C631        C637   1.541       .  S
C631        C636   1.538       .  S
C631        C635   1.538       .  S
C633        H634   1.110       .  S
C633        C639   1.539       .  S
C633        C638   1.534       .  S
C633        C640   1.534       .  S
C635        C638   1.374       .  D
C635        C817   1.493       .  S
C636        C639   1.377       .  D
C636        C829   1.495       .  S
C637        C640   1.377       .  D
C637        C808   1.482       .  S
C638        C784   1.484       .  S
C639        C793   1.483       .  S
C640        C769   1.498       .  S
C641        H642   1.110       .  S
C641        C647   1.536       .  S
C641        C646   1.537       .  S
C641        C645   1.536       .  S
C643        H644   1.109       .  S
C643        C649   1.533       .  S
C643        C648   1.543       .  S
C643        C650   1.535       .  S
C645        C648   1.380       .  D
C645        C748   1.500       .  S
C646        C649   1.375       .  D
C646        C733   1.478       .  S
C647        C650   1.374       .  D
C647        C757   1.490       .  S
C648        C709   1.489       .  S
C649        C700   1.496       .  S
C650        C724   1.486       .  S
O651        C667   1.276       .  A
O651      Zn1497   2.027       .  S
C652        O668   1.276       .  A
C652        O665   1.273       .  A
C652        C796   1.479       .  S
O653        C666   1.274       .  A
O653      Cd1080   2.065   1_465  S
O654        C672   1.273       .  A
O655        C669   1.274       .  A
O656        C667   1.274       .  A
O656       Cd659   2.071       .  S
Zn657      O1491   2.027   1_455  S
Zn657      O1082   1.947   1_465  S
O658        C669   1.275       .  A
O658      Cd1503   2.075       .  S
Cd660      O1073   2.082       .  S
Cd660      O1513   2.080       .  S
O661        C671   1.273       .  A
O662      Zn1077   1.945   1_554  S
O662      Cd1503   2.002   1_554  S
Cd663      O1498   2.084   1_455  S
Cd663       O665   2.058       .  S
Cd663      O1502   2.006   1_556  S
O664        C671   1.275       .  A
C666        O670   1.275       .  A
C666        C721   1.478       .  S
C667        C781   1.492       .  S
C669        C772   1.479       .  S
C671        C712   1.472       .  S
C672        O673   1.275       .  A
C672        C697   1.475       .  S
O673      Cd1500   2.069   1_455  S
O674        C690   1.271       .  A
O674      Zn1520   1.993   1_455  S
C675        O691   1.272       .  A
C675        O688   1.274       .  A
C675        C745   1.484       .  S
O676        C689   1.275       .  A
O676       Cd683   2.069       .  S
O677        C695   1.274       .  A
O677       Cd686   2.050       .  S
O678        C692   1.275       .  A
O679        C690   1.277       .  A
O679       Cd682   2.083       .  S
Zn680      O1514   1.983       .  S
Zn680       O693   2.005       .  S
Zn680       O685   1.940       .  S
O681        C692   1.274   1_655  A
O681      Cd1526   2.079       .  S
Cd682       O684   2.082       .  S
Cd682      O1525   2.000   1_455  S
Cd683      O1527   2.077       .  S
Cd683       O685   2.003       .  S
O684        C694   1.276       .  A
O685      Cd1522   2.000       .  S
Cd686      O1521   2.069       .  S
Cd686       O688   2.072       .  S
O687        C694   1.276       .  A
O687      Cd1523   2.081       .  S
C689        O693   1.273       .  A
C689        C805   1.470       .  S
C690        C736   1.486       .  S
C692        C760   1.484       .  S
C694        C832   1.484       .  S
C695        O696   1.275       .  A
C695        C820   1.473       .  S
C697        C698   1.402       .  A
C697        C702   1.409       .  A
C698        C699   1.400       .  A
C698        H703   1.085       .  S
C699        C700   1.416       .  A
C699        C706   1.442       .  S
C700        C701   1.407       .  A
C701        C702   1.398       .  A
C701        H704   1.083       .  S
C702       C1545   1.445       .  S
C705       C1542   1.444       .  S
C705        N707   1.157       .  T
C706        N708   1.157       .  T
C709        C710   1.408       .  A
C709        C714   1.412       .  A
C710        C711   1.399       .  A
C710        H715   1.084       .  S
C711        C712   1.409       .  A
C711        C718   1.444       .  S
C712        C713   1.401       .  A
C713        C714   1.397       .  A
C713        H716   1.085       .  S
C714        C717   1.442       .  S
C717        N719   1.157       .  T
C718        N720   1.157       .  T
C721        C722   1.403       .  A
C721        C726   1.412       .  A
C722        C723   1.399       .  A
C722        H727   1.085       .  S
C723        C724   1.411       .  A
C723        C730   1.443       .  S
C724        C725   1.404       .  A
C725        C726   1.401       .  A
C725        H728   1.085       .  S
C726        C729   1.444       .  S
C729        N731   1.157   1_455  T
C730        N732   1.157       .  T
C733        C734   1.396       .  A
C733        C738   1.410       .  A
C734        C735   1.395       .  A
C734        H739   1.086       .  S
C735        C736   1.419       .  A
C735        C742   1.444       .  S
C736        C737   1.408       .  A
C737        C738   1.402       .  A
C737        H740   1.084       .  S
C738        C741   1.445       .  S
C741        N743   1.157       .  T
C742        N744   1.157   1_455  T
C745        C746   1.400       .  A
C745        C750   1.413       .  A
C746        C747   1.399       .  A
C746        H751   1.085       .  S
C747        C748   1.417       .  A
C747        C754   1.440       .  S
C748        C749   1.408       .  A
C749        C750   1.403       .  A
C749        H752   1.084       .  S
C750        C753   1.444   1_565  S
C753        N755   1.157       .  T
C754        N756   1.156       .  T
C757        C758   1.406       .  A
C757        C762   1.410       .  A
C758        C759   1.405       .  A
C758        H763   1.085       .  S
C759        C760   1.415       .  A
C759        C766   1.444   1_455  S
C760        C761   1.403       .  A
C761        C762   1.396       .  A
C761        H764   1.085       .  S
C762        C765   1.442       .  S
C765        N767   1.156       .  T
C766        N768   1.157       .  T
C769        C770   1.409       .  A
C769        C774   1.414       .  A
C770        C771   1.403       .  A
C770        H775   1.084       .  S
C771        C772   1.411       .  A
C771        C778   1.444       .  S
C772        C773   1.400       .  A
C773        C774   1.396       .  A
C773        H776   1.085       .  S
C774        C777   1.441       .  S
C777        N779   1.156       .  T
C778       N1620   1.157       .  T
N780       C1618   1.157   1_455  T
C781        C782   1.407       .  A
C781        C786   1.420       .  A
C782        C783   1.399       .  A
C782        H787   1.085       .  S
C783        C784   1.408       .  A
C783        C790   1.442       .  S
C784        C785   1.400       .  A
C785        C786   1.403       .  A
C785        H788   1.085       .  S
C786        C789   1.444       .  S
C789        N791   1.157       .  T
C790        N792   1.156       .  T
C793        C794   1.402       .  A
C793        C798   1.412       .  A
C794        C795   1.399       .  A
C794        H799   1.085       .  S
C795        C796   1.415       .  A
C795        C802   1.444       .  S
C796        C797   1.403       .  A
C797        C798   1.398       .  A
C797        H800   1.085       .  S
C798        C801   1.443       .  S
C801        N803   1.157       .  T
C805        C806   1.400       .  A
C805        C810   1.411       .  A
C806        C807   1.397       .  A
C806        H811   1.085       .  S
C807        C808   1.412       .  A
C807        C814   1.442       .  S
C808        C809   1.402       .  A
C809        C810   1.400       .  A
C809        H812   1.085       .  S
C810        C813   1.443       .  S
C813       N1655   1.157       .  T
C814        N816   1.157       .  T
N815       C1653   1.157   1_455  T
C817        C818   1.408       .  A
C817        C822   1.415       .  A
C818        C819   1.401       .  A
C818        H823   1.083       .  S
C819        C820   1.409       .  A
C819       C1666   1.444       .  S
C820        C821   1.399       .  A
C821        C822   1.395       .  A
C821        H824   1.086       .  S
C822        C825   1.440       .  S
C825        N827   1.156       .  T
C826       C1659   1.444       .  S
C826        N828   1.157   1_655  T
C829        C830   1.404       .  A
C829        C834   1.416       .  A
C830        C831   1.403       .  A
C830        H835   1.085       .  S
C831        C832   1.413       .  A
C831        C838   1.444       .  S
C832        C833   1.403       .  A
C833        C834   1.403       .  A
C833        H836   1.085       .  S
C834        C837   1.443       .  S
C837        N839   1.157       .  T
C838        N840   1.157       .  T
C841        H842   1.111       .  S
C841        C847   1.549       .  S
C841        C846   1.544       .  S
C841        C845   1.540       .  S
C843        H844   1.111       .  S
C843        C849   1.538       .  S
C843        C848   1.533       .  S
C843        C850   1.531       .  S
C845        C848   1.369       .  D
C845       C1027   1.491       .  S
C846        C849   1.380       .  D
C846       C1039   1.497       .  S
C847        C850   1.378       .  D
C847       C1018   1.498       .  S
C848        C994   1.480       .  S
C849       C1003   1.488       .  S
C850        C979   1.491       .  S
C851        H852   1.110       .  S
C851        C857   1.536       .  S
C851        C856   1.538       .  S
C851        C855   1.540       .  S
C853        H854   1.110       .  S
C853        C859   1.538       .  S
C853        C858   1.542       .  S
C853        C860   1.542       .  S
C855        C858   1.379       .  D
C855        C958   1.496       .  S
C856        C859   1.375       .  D
C856        C943   1.481       .  S
C857        C860   1.377       .  D
C857        C967   1.500       .  S
C858        C919   1.497       .  S
C859        C910   1.499       .  S
C860        C934   1.486       .  S
O861        C877   1.276       .  A
C862        O878   1.274       .  A
C862        O875   1.273       .  A
C862       C1006   1.473       .  S
O863        C876   1.276       .  A
O864        C882   1.275       .  A
O864      Cd1083   2.074   1_554  S
O865        C879   1.274       .  A
O865      Cd1289   2.059   1_545  S
O866        C877   1.273       .  A
O866       Cd869   2.061       .  S
Zn867      O1298   2.026       .  S
Zn867      O1090   2.022       .  S
O868        C879   1.274       .  A
Cd869      O1285   2.064       .  S
Cd869      O1081   2.053       .  S
Cd869      O1292   1.987       .  S
Cd870      O1294   2.075   1_545  S
Cd870      O1082   2.004   1_554  S
O871        C881   1.273       .  A
O871      Cd1079   2.059   1_554  S
O872      Cd1289   1.991   1_545  S
O872      Cd1080   2.000       .  S
Cd873      O1074   2.065       .  S
Cd873       O875   2.049       .  S
O874        C881   1.276       .  A
O874      Cd1290   2.085   1_655  S
C876        O880   1.275       .  A
C876        C931   1.478       .  S
C877        C991   1.491       .  S
O878      Zn1287   2.021   1_545  S
C879        C982   1.481       .  S
O880      Zn1077   2.017   1_554  S
C881        C922   1.479       .  S
C882        O883   1.276       .  A
C882        C907   1.481       .  S
O884        C900   1.273       .  A
C885        O901   1.273       .  A
C885        O898   1.275       .  A
C885        C955   1.481       .  S
O886        C899   1.277       .  A
O886       Cd893   2.090       .  S
O887        C905   1.274       .  A
O887       Cd896   2.065       .  S
O888        C902   1.277       .  A
O888      Cd1312   2.081       .  S
O889        C900   1.275       .  A
O889       Cd892   2.067       .  S
Zn890      O1321   2.019   1_545  S
Zn890       O903   2.012       .  S
Zn890       O895   1.944       .  S
O891        C902   1.275       .  A
Cd892      O1308   2.059   1_545  S
Cd892       O894   2.061       .  S
Cd893      O1326   2.081   1_545  S
Cd893       O895   2.009       .  S
O894        C904   1.273       .  A
O895      Cd1316   2.000   1_545  S
Cd896       O898   2.066       .  S
Cd896      O1315   2.003       .  S
O897        C904   1.277       .  A
C899        O903   1.274       .  A
C899       C1015   1.480       .  S
C900        C946   1.486       .  S
O901      Zn1310   2.016       .  S
C902        C970   1.490       .  S
C904       C1042   1.479       .  S
C905        O906   1.275       .  A
C905       C1030   1.471       .  S
O906      Cd1313   2.074       .  S
C907        C908   1.401       .  A
C907        C912   1.410       .  A
C908        C909   1.402       .  A
C908        H913   1.085       .  S
C909        C910   1.416       .  A
C909        C916   1.442       .  S
C910        C911   1.408       .  A
C911        C912   1.403       .  A
C911        H914   1.084       .  S
C915        N917   1.157       .  T
C916        N918   1.157       .  T
C919        C920   1.409       .  A
C919        C924   1.413       .  A
C920        C921   1.402       .  A
C920        H925   1.084       .  S
C921        C922   1.410       .  A
C921        C928   1.444       .  S
C922        C923   1.402       .  A
C923        C924   1.400       .  A
C923        H926   1.085       .  S
C924        C927   1.442       .  S
C927        N929   1.157       .  T
C928        N930   1.157       .  T
C931        C932   1.403       .  A
C931        C936   1.412       .  A
C932        C933   1.400       .  A
C932        H937   1.085       .  S
C933        C934   1.413       .  A
C933        C940   1.444       .  S
C934        C935   1.402       .  A
C935        C936   1.400       .  A
C935        H938   1.085       .  S
C936        C939   1.444       .  S
C939        N941   1.157       .  T
C940        N942   1.157       .  T
C943        C944   1.399       .  A
C943        C948   1.409       .  A
C944        C945   1.398       .  A
C944        H949   1.085       .  S
C945        C946   1.417       .  A
C945        C952   1.444       .  S
C946        C947   1.408       .  A
C947        C948   1.399       .  A
C947        H950   1.084       .  S
C948        C951   1.444       .  S
C951        N953   1.157       .  T
C952        N954   1.157       .  T
C955        C956   1.400       .  A
C955        C960   1.412       .  A
C956        C957   1.397       .  A
C956        H961   1.085       .  S
C957        C958   1.414       .  A
C957        C964   1.440       .  S
C958        C959   1.408       .  A
C959        C960   1.402       .  A
C959        H962   1.084       .  S
C960        C963   1.444       .  S
C963        N965   1.157       .  T
C964        N966   1.156       .  T
C967        C968   1.407       .  A
C967        C972   1.414       .  A
C968        C969   1.406       .  A
C968        H973   1.084       .  S
C969        C970   1.415       .  A
C969        C976   1.444       .  S
C970        C971   1.403       .  A
C971        C972   1.401       .  A
C971        H974   1.085       .  S
C972        C975   1.442       .  S
C975        N977   1.157       .  T
C976        N978   1.157       .  T
C979        C980   1.406       .  A
C979        C984   1.413       .  A
C980        C981   1.402       .  A
C980        H985   1.084       .  S
C981        C982   1.413       .  A
C981        C988   1.443       .  S
C982        C983   1.402       .  A
C983        C984   1.396       .  A
C983        H986   1.085       .  S
C984        C987   1.442       .  S
C987        N989   1.157       .  T
C991        C992   1.410       .  A
C991        C996   1.419       .  A
C992        C993   1.402       .  A
C992        H997   1.084       .  S
C993        C994   1.406       .  A
C993       C1000   1.444       .  S
C994        C995   1.397       .  A
C995        C996   1.398       .  A
C995        H998   1.082       .  S
C996        C999   1.445       .  S
C999       N1001   1.157       .  T
C1000      N1002   1.157       .  T
C1003      C1004   1.402       .  A
C1003      C1008   1.416       .  A
C1004      C1005   1.394       .  A
C1004      H1009   1.080       .  S
C1005      C1006   1.411       .  A
C1005      C1012   1.445       .  S
C1006      C1007   1.402       .  A
C1007      C1008   1.401       .  A
C1007      H1010   1.085       .  S
C1008      C1011   1.443       .  S
C1011      N1013   1.157       .  T
C1012      N1224   1.157       .  T
N1014      C1222   1.157       .  T
C1015      C1016   1.403       .  A
C1015      C1020   1.410       .  A
C1016      C1017   1.405       .  A
C1016      H1021   1.084       .  S
C1017      C1018   1.417       .  A
C1017      C1024   1.443       .  S
C1018      C1019   1.401       .  A
C1019      C1020   1.399       .  A
C1019      H1022   1.066       .  S
C1020      C1023   1.444       .  S
C1024      N1026   1.157       .  T
C1027      C1028   1.403       .  A
C1027      C1032   1.414       .  A
C1028      C1029   1.400       .  A
C1028      H1033   1.069       .  S
C1029      C1030   1.407       .  A
C1030      C1031   1.399       .  A
C1031      C1032   1.401       .  A
C1031      H1034   1.085       .  S
C1032      C1035   1.439       .  S
C1035      N1037   1.156       .  T
C1036      N1038   1.157       .  T
C1039      C1040   1.405       .  A
C1039      C1044   1.419       .  A
C1040      C1041   1.402       .  A
C1040      H1045   1.085       .  S
C1041      C1042   1.413       .  A
C1041      C1048   1.444       .  S
C1042      C1043   1.399       .  A
C1043      C1044   1.399       .  A
C1043      H1046   1.085       .  S
C1044      C1047   1.442       .  S
C1047      N1049   1.157       .  T
C1048      N1050   1.157       .  T
C1051      H1052   1.110       .  S
C1051      C1057   1.541       .  S
C1051      C1056   1.538       .  S
C1051      C1055   1.541       .  S
C1053      H1054   1.110       .  S
C1053      C1059   1.543       .  S
C1053      C1058   1.538       .  S
C1053      C1060   1.535       .  S
C1055      C1058   1.378       .  D
C1055      C1237   1.498       .  S
C1056      C1059   1.376       .  D
C1056      C1249   1.498       .  S
C1057      C1060   1.377       .  D
C1057      C1228   1.487       .  S
C1058      C1204   1.490       .  S
C1059      C1213   1.486       .  S
C1060      C1189   1.497       .  S
C1061      H1062   1.110       .  S
C1061      C1067   1.535       .  S
C1061      C1066   1.534       .  S
C1061      C1065   1.534       .  S
C1063      H1064   1.110       .  S
C1063      C1069   1.535       .  S
C1063      C1068   1.542       .  S
C1063      C1070   1.537       .  S
C1065      C1068   1.378       .  D
C1065      C1168   1.496       .  S
C1066      C1069   1.373       .  D
C1066      C1153   1.473       .  S
C1067      C1070   1.376       .  D
C1067      C1177   1.491       .  S
C1068      C1129   1.486       .  S
C1069      C1120   1.498       .  S
C1070      C1144   1.487       .  S
O1071      C1087   1.277       .  A
C1072      O1088   1.276       .  A
C1072      O1085   1.273       .  A
C1072      C1216   1.478       .  S
O1073      C1086   1.275       .  A
O1074      C1092   1.273       .  A
O1075      C1089   1.274       .  A
O1075     Cd1499   2.059   1_545  S
O1076      C1087   1.273       .  A
O1076     Cd1079   2.068       .  S
Zn1077     O1508   2.024       .  S
O1078      C1089   1.276       .  A
Cd1079     O1495   2.049       .  S
Cd1079     O1502   1.990   1_656  S
Cd1080     O1504   2.063   1_545  S
O1081      C1091   1.273       .  A
O1082     Cd1499   1.996   1_545  S
Cd1083     O1085   2.053       .  S
O1084      C1091   1.274       .  A
O1084     Cd1500   2.068       .  S
C1086      O1090   1.275       .  A
C1086      C1141   1.480       .  S
C1087      C1201   1.497       .  S
O1088     Zn1497   2.025   1_545  S
C1089      C1192   1.481       .  S
C1091      C1132   1.469       .  S
C1092      O1093   1.276       .  A
C1092      C1117   1.481       .  S
O1094      C1110   1.270       .  A
C1095      O1111   1.273       .  A
C1095      O1108   1.274       .  A
C1095      C1165   1.487       .  S
O1096      C1109   1.276       .  A
O1096     Cd1103   2.079       .  S
O1097      C1115   1.274       .  A
O1097     Cd1106   2.059       .  S
O1098      C1112   1.276       .  A
O1098     Cd1522   2.063       .  S
O1099      C1110   1.276       .  A
O1099     Cd1102   2.071       .  S
Zn1100     O1531   2.023   1_545  S
Zn1100     O1113   2.011       .  S
Zn1100     O1105   1.943       .  S
O1101      C1112   1.273       .  A
Cd1102     O1518   2.058   1_545  S
Cd1102     O1104   2.081       .  S
Cd1103     O1536   2.078   1_545  S
Cd1103     O1105   2.006       .  S
O1104      C1114   1.276       .  A
O1105     Cd1526   1.999   1_545  S
Cd1106     O1108   2.065       .  S
Cd1106     O1525   1.995       .  S
O1107      C1114   1.277       .  A
C1109      O1113   1.273       .  A
C1109      C1225   1.475       .  S
C1110      C1156   1.481       .  S
O1111     Zn1520   2.025       .  S
C1112      C1180   1.477       .  S
C1114      C1252   1.489       .  S
C1115      O1116   1.275       .  A
C1115      C1240   1.478       .  S
O1116     Cd1523   2.077   1_655  S
C1117      C1118   1.404       .  A
C1117      C1122   1.410       .  A
C1118      C1119   1.403       .  A
C1118      H1123   1.085       .  S
C1119      C1120   1.414       .  A
C1119      C1126   1.442       .  S
C1120      C1121   1.407       .  A
C1121      C1122   1.399       .  A
C1121      H1124   1.083       .  S
C1125      N1127   1.157       .  T
C1126      N1128   1.157       .  T
C1129      C1130   1.407       .  A
C1129      C1134   1.412       .  A
C1130      C1131   1.398       .  A
C1130      H1135   1.084       .  S
C1131      C1132   1.408       .  A
C1131      C1138   1.444       .  S
C1132      C1133   1.400       .  A
C1133      C1134   1.397       .  A
C1133      H1136   1.085       .  S
C1134      C1137   1.442       .  S
C1137      N1139   1.157       .  T
C1138      N1140   1.157       .  T
C1141      C1142   1.404       .  A
C1141      C1146   1.413       .  A
C1142      C1143   1.402       .  A
C1142      H1147   1.085       .  S
C1143      C1144   1.413       .  A
C1143      C1150   1.444       .  S
C1144      C1145   1.401       .  A
C1145      C1146   1.400       .  A
C1145      H1148   1.085       .  S
C1146      C1149   1.444       .  S
C1149      N1151   1.157       .  T
C1150      N1152   1.157       .  T
C1153      C1154   1.396       .  A
C1153      C1158   1.408       .  A
C1154      C1155   1.393       .  A
C1154      H1159   1.086       .  S
C1155      C1156   1.419       .  A
C1155      C1162   1.444       .  S
C1156      C1157   1.407       .  A
C1157      C1158   1.398       .  A
C1157      H1160   1.084       .  S
C1158      C1161   1.445       .  S
C1161      N1163   1.157       .  T
C1162      N1164   1.157       .  T
C1165      C1166   1.402       .  A
C1165      C1170   1.415       .  A
C1166      C1167   1.398       .  A
C1166      H1171   1.085       .  S
C1167      C1168   1.413       .  A
C1167      C1174   1.439       .  S
C1168      C1169   1.407       .  A
C1169      C1170   1.404       .  A
C1169      H1172   1.085       .  S
C1170      C1173   1.444       .  S
C1173      N1175   1.157       .  T
C1174      N1176   1.156       .  T
C1177      C1178   1.407       .  A
C1177      C1182   1.412       .  A
C1178      C1179   1.401       .  A
C1178      H1183   1.084       .  S
C1179      C1180   1.411       .  A
C1179      C1186   1.444       .  S
C1180      C1181   1.401       .  A
C1181      C1182   1.395       .  A
C1181      H1184   1.085       .  S
C1182      C1185   1.441       .  S
C1185      N1187   1.157       .  T
C1186      N1188   1.157       .  T
C1189      C1190   1.408       .  A
C1189      C1194   1.414       .  A
C1190      C1191   1.401       .  A
C1190      H1195   1.084       .  S
C1191      C1192   1.411       .  A
C1191      C1198   1.444       .  S
C1192      C1193   1.403       .  A
C1193      C1194   1.399       .  A
C1193      H1196   1.085       .  S
C1194      C1197   1.442       .  S
C1197      N1199   1.157       .  T
C1201      C1202   1.406       .  A
C1201      C1206   1.421       .  A
C1202      C1203   1.400       .  A
C1202      H1207   1.085       .  S
C1203      C1204   1.411       .  A
C1203      C1210   1.440       .  S
C1204      C1205   1.401       .  A
C1205      C1206   1.405       .  A
C1205      H1208   1.085       .  S
C1206      C1209   1.444       .  S
C1209      N1211   1.157       .  T
C1210      N1212   1.156       .  T
C1213      C1214   1.401       .  A
C1213      C1218   1.415       .  A
C1214      C1215   1.399       .  A
C1214      H1219   1.085       .  S
C1215      C1216   1.414       .  A
C1215      C1222   1.445       .  S
C1216      C1217   1.402       .  A
C1217      C1218   1.399       .  A
C1217      H1220   1.085       .  S
C1218      C1221   1.443       .  S
C1221      N1223   1.157       .  T
C1225      C1226   1.401       .  A
C1225      C1230   1.411       .  A
C1226      C1227   1.400       .  A
C1226      H1231   1.085       .  S
C1227      C1228   1.414       .  A
C1227      C1234   1.442       .  S
C1228      C1229   1.402       .  A
C1229      C1230   1.400       .  A
C1229      H1232   1.085       .  S
C1230      C1233   1.443       .  S
C1234      N1236   1.157       .  T
C1237      C1238   1.408       .  A
C1237      C1242   1.417       .  A
C1238      C1239   1.403       .  A
C1238      H1243   1.082       .  S
C1239      C1240   1.410       .  A
C1240      C1241   1.399       .  A
C1241      C1242   1.397       .  A
C1241      H1244   1.086       .  S
C1242      C1245   1.440       .  S
C1245      N1247   1.156       .  T
C1246      N1248   1.157       .  T
C1249      C1250   1.404       .  A
C1249      C1254   1.416       .  A
C1250      C1251   1.403       .  A
C1250      H1255   1.085       .  S
C1251      C1252   1.415       .  A
C1251      C1258   1.444       .  S
C1252      C1253   1.405       .  A
C1253      C1254   1.405       .  A
C1253      H1256   1.085       .  S
C1254      C1257   1.444       .  S
C1257      N1259   1.157       .  T
C1258      N1260   1.157       .  T
C1261      H1262   1.110       .  S
C1261      C1267   1.539       .  S
C1261      C1266   1.537       .  S
C1261      C1265   1.540       .  S
C1263      H1264   1.110       .  S
C1263      C1269   1.541       .  S
C1263      C1268   1.537       .  S
C1263      C1270   1.537       .  S
C1265      C1268   1.377       .  D
C1265      C1447   1.497       .  S
C1266      C1269   1.375       .  D
C1266      C1459   1.493       .  S
C1267      C1270   1.377       .  D
C1267      C1438   1.485       .  S
C1268      C1414   1.488       .  S
C1269      C1423   1.485       .  S
C1270      C1399   1.499       .  S
C1271      H1272   1.110       .  S
C1271      C1277   1.536       .  S
C1271      C1276   1.539       .  S
C1271      C1275   1.539       .  S
C1273      H1274   1.109       .  S
C1273      C1279   1.536       .  S
C1273      C1278   1.544       .  S
C1273      C1280   1.537       .  S
C1275      C1278   1.382       .  D
C1275      C1378   1.500       .  S
C1276      C1279   1.374       .  D
C1276      C1363   1.480       .  S
C1277      C1280   1.374       .  D
C1277      C1387   1.489       .  S
C1278      C1339   1.493       .  S
C1279      C1330   1.499       .  S
C1280      C1354   1.489       .  S
O1281      C1297   1.276       .  A
C1282      O1298   1.276       .  A
C1282      O1295   1.273       .  A
C1282      C1426   1.475       .  S
O1283      C1296   1.275       .  A
O1284      C1302   1.274       .  A
O1284     Cd1503   2.068   1_554  S
O1285      C1299   1.274       .  A
O1286      C1297   1.274       .  A
O1286     Cd1289   2.075       .  S
Zn1287     O1510   2.020       .  S
O1288      C1299   1.275       .  A
Cd1289     O1501   2.053       .  S
Cd1290     O1502   2.006       .  S
O1291      C1301   1.274       .  A
O1291     Cd1499   2.057   1_554  S
O1292     Cd1500   2.003       .  S
Cd1293     O1494   2.063       .  S
Cd1293     O1295   2.049       .  S
O1294      C1301   1.275       .  A
C1296      O1300   1.275       .  A
C1296      C1351   1.480       .  S
C1297      C1411   1.495       .  S
C1299      C1402   1.486       .  S
O1300     Zn1497   2.027   1_554  S
C1301      C1342   1.476       .  S
C1302      O1303   1.276       .  A
C1302      C1327   1.481       .  S
O1304      C1320   1.271       .  A
C1305      O1321   1.273       .  A
C1305      O1318   1.274       .  A
C1305      C1375   1.480       .  S
O1306      C1319   1.274       .  A
O1306     Cd1313   2.072       .  S
O1307      C1325   1.275       .  A
O1307     Cd1316   2.063       .  S
O1308      C1322   1.274       .  A
O1309      C1320   1.278       .  A
O1309     Cd1312   2.089       .  S
Zn1310     O1323   2.019       .  S
Zn1310     O1315   1.947       .  S
O1311      C1322   1.275       .  A
Cd1312     O1314   2.075       .  S
Cd1313     O1315   2.007       .  S
O1314      C1324   1.276       .  A
Cd1316     O1318   2.066       .  S
O1317      C1324   1.277       .  A
C1319      O1323   1.273       .  A
C1319      C1435   1.475       .  S
C1320      C1366   1.490       .  S
C1322      C1390   1.485       .  S
C1324      C1462   1.482       .  S
C1325      O1326   1.276       .  A
C1325      C1450   1.479       .  S
C1327      C1328   1.401       .  A
C1327      C1332   1.410       .  A
C1328      C1329   1.400       .  A
C1328      H1333   1.085       .  S
C1329      C1330   1.415       .  A
C1329      C1336   1.441       .  S
C1330      C1331   1.409       .  A
C1331      C1332   1.403       .  A
C1331      H1334   1.083       .  S
C1335      N1337   1.157   1_455  T
C1336      N1338   1.157       .  T
C1339      C1340   1.409       .  A
C1339      C1344   1.414       .  A
C1340      C1341   1.402       .  A
C1340      H1345   1.084       .  S
C1341      C1342   1.410       .  A
C1341      C1348   1.443       .  S
C1342      C1343   1.400       .  A
C1343      C1344   1.396       .  A
C1343      H1346   1.085       .  S
C1344      C1347   1.442       .  S
C1347      N1349   1.157       .  T
C1348      N1350   1.157       .  T
C1351      C1352   1.404       .  A
C1351      C1356   1.413       .  A
C1352      C1353   1.400       .  A
C1352      H1357   1.085       .  S
C1353      C1354   1.413       .  A
C1353      C1360   1.443       .  S
C1354      C1355   1.403       .  A
C1355      C1356   1.401       .  A
C1355      H1358   1.085       .  S
C1356      C1359   1.444       .  S
C1359      N1361   1.157       .  T
C1360      N1362   1.157   1_565  T
C1363      C1364   1.397       .  A
C1363      C1368   1.409       .  A
C1364      C1365   1.399       .  A
C1364      H1369   1.085       .  S
C1365      C1366   1.422       .  A
C1365      C1372   1.444       .  S
C1366      C1367   1.407       .  A
C1367      C1368   1.400       .  A
C1367      H1370   1.084       .  S
C1368      C1371   1.444       .  S
C1371      N1373   1.157       .  T
C1372      N1374   1.157       .  T
C1375      C1376   1.399       .  A
C1375      C1380   1.411       .  A
C1376      C1377   1.398       .  A
C1376      H1381   1.085       .  S
C1377      C1378   1.417       .  A
C1377      C1384   1.440       .  S
C1378      C1379   1.409       .  A
C1379      C1380   1.402       .  A
C1379      H1382   1.084       .  S
C1380      C1383   1.444   1_565  S
C1383      N1385   1.157       .  T
C1384      N1386   1.156       .  T
C1387      C1388   1.405       .  A
C1387      C1392   1.411       .  A
C1388      C1389   1.404       .  A
C1388      H1393   1.085       .  S
C1389      C1390   1.414       .  A
C1389      C1396   1.443       .  S
C1390      C1391   1.404       .  A
C1391      C1392   1.397       .  A
C1391      H1394   1.085       .  S
C1392      C1395   1.442       .  S
C1395      N1397   1.156       .  T
C1396      N1398   1.157       .  T
C1399      C1400   1.409       .  A
C1399      C1404   1.414       .  A
C1400      C1401   1.404       .  A
C1400      H1405   1.084       .  S
C1401      C1402   1.412       .  A
C1401      C1408   1.443       .  S
C1402      C1403   1.403       .  A
C1403      C1404   1.398       .  A
C1403      H1406   1.085       .  S
C1404      C1407   1.441       .  S
C1407      N1409   1.157       .  T
C1411      C1412   1.406       .  A
C1411      C1416   1.420       .  A
C1412      C1413   1.399       .  A
C1412      H1417   1.085       .  S
C1413      C1414   1.409       .  A
C1413      C1420   1.441       .  S
C1414      C1415   1.402       .  A
C1415      C1416   1.405       .  A
C1415      H1418   1.085       .  S
C1416      C1419   1.444       .  S
C1419      N1421   1.157       .  T
C1420      N1422   1.156       .  T
C1423      C1424   1.402       .  A
C1423      C1428   1.415       .  A
C1424      C1425   1.398       .  A
C1424      H1429   1.085       .  S
C1425      C1426   1.413       .  A
C1425      C1432   1.445       .  S
C1426      C1427   1.401       .  A
C1427      C1428   1.399       .  A
C1427      H1430   1.085       .  S
C1428      C1431   1.442       .  S
C1431      N1433   1.157       .  T
C1432      N1644   1.157       .  T
N1434      C1642   1.158       .  T
C1435      C1436   1.402       .  A
C1435      C1440   1.411       .  A
C1436      C1437   1.400       .  A
C1436      H1441   1.085       .  S
C1437      C1438   1.412       .  A
C1437      C1444   1.443       .  S
C1438      C1439   1.402       .  A
C1439      C1440   1.400       .  A
C1439      H1442   1.085       .  S
C1440      C1443   1.443       .  S
C1444      N1446   1.157       .  T
C1447      C1448   1.409       .  A
C1447      C1452   1.416       .  A
C1448      C1449   1.403       .  A
C1448      H1453   1.083       .  S
C1449      C1450   1.410       .  A
C1450      C1451   1.400       .  A
C1451      C1452   1.398       .  A
C1451      H1454   1.085       .  S
C1452      C1455   1.441       .  S
C1455      N1457   1.157       .  T
C1456      N1458   1.157       .  T
C1459      C1460   1.403       .  A
C1459      C1464   1.416       .  A
C1460      C1461   1.401       .  A
C1460      H1465   1.085       .  S
C1461      C1462   1.412       .  A
C1461      C1468   1.444       .  S
C1462      C1463   1.403       .  A
C1463      C1464   1.404       .  A
C1463      H1466   1.085       .  S
C1464      C1467   1.444       .  S
C1467      N1469   1.157       .  T
C1468      N1470   1.157       .  T
C1471      H1472   1.110       .  S
C1471      C1477   1.539       .  S
C1471      C1476   1.538       .  S
C1471      C1475   1.541       .  S
C1473      H1474   1.110       .  S
C1473      C1479   1.538       .  S
C1473      C1478   1.532       .  S
C1473      C1480   1.538       .  S
C1475      C1478   1.377       .  D
C1475      C1657   1.495       .  S
C1476      C1479   1.376       .  D
C1476      C1669   1.495       .  S
C1477      C1480   1.378       .  D
C1477      C1648   1.487       .  S
C1478      C1624   1.488       .  S
C1479      C1633   1.484       .  S
C1480      C1609   1.499       .  S
C1481      H1482   1.110       .  S
C1481      C1487   1.535       .  S
C1481      C1486   1.536       .  S
C1481      C1485   1.535       .  S
C1483      H1484   1.109       .  S
C1483      C1489   1.534       .  S
C1483      C1488   1.540       .  S
C1483      C1490   1.536       .  S
C1485      C1488   1.379       .  D
C1485      C1588   1.501       .  S
C1486      C1489   1.374       .  D
C1486      C1573   1.475       .  S
C1487      C1490   1.376       .  D
C1487      C1597   1.488       .  S
C1488      C1549   1.482       .  S
C1489      C1540   1.498       .  S
C1490      C1564   1.488       .  S
O1491      C1507   1.277       .  A
C1492      O1508   1.276       .  A
C1492      O1505   1.273       .  A
C1492      C1636   1.479       .  S
O1493      C1506   1.275       .  A
O1494      C1512   1.274       .  A
O1495      C1509   1.273       .  A
O1496      C1507   1.274       .  A
O1496     Cd1499   2.072       .  S
O1498      C1509   1.276       .  A
O1501      C1511   1.273       .  A
Cd1503     O1505   2.056       .  S
O1504      C1511   1.274       .  A
C1506      O1510   1.275       .  A
C1506      C1561   1.479       .  S
C1507      C1621   1.491       .  S
C1509      C1612   1.477       .  S
C1511      C1552   1.467       .  S
C1512      O1513   1.277       .  A
C1512      C1537   1.480       .  S
O1514      C1530   1.270       .  A
C1515      O1531   1.273       .  A
C1515      O1528   1.274       .  A
C1515      C1585   1.482       .  S
O1516      C1529   1.276       .  A
O1516     Cd1523   2.077   1_655  S
O1517      C1535   1.274       .  A
O1517     Cd1526   2.057       .  S
O1518      C1532   1.275       .  A
O1519      C1530   1.278       .  A
O1519     Cd1522   2.085       .  S
Zn1520     O1533   2.010       .  S
Zn1520     O1525   1.941       .  S
O1521      C1532   1.274       .  A
Cd1522     O1524   2.091       .  S
Cd1523     O1525   2.004   1_455  S
O1524      C1534   1.277       .  A
Cd1526     O1528   2.068       .  S
O1527      C1534   1.275       .  A
C1529      O1533   1.273       .  A
C1529      C1645   1.475       .  S
C1530      C1576   1.484       .  S
C1532      C1600   1.480       .  S
C1534      C1672   1.485       .  S
C1535      O1536   1.276       .  A
C1535      C1660   1.477       .  S
C1537      C1538   1.403       .  A
C1537      C1542   1.409       .  A
C1538      C1539   1.402       .  A
C1538      H1543   1.085       .  S
C1539      C1540   1.415       .  A
C1539      C1546   1.442       .  S
C1540      C1541   1.408       .  A
C1541      C1542   1.399       .  A
C1541      H1544   1.083       .  S
C1545      N1547   1.157   1_455  T
C1546      N1548   1.157       .  T
C1549      C1550   1.406       .  A
C1549      C1554   1.411       .  A
C1550      C1551   1.398       .  A
C1550      H1555   1.085       .  S
C1551      C1552   1.409       .  A
C1551      C1558   1.444       .  S
C1552      C1553   1.400       .  A
C1553      C1554   1.395       .  A
C1553      H1556   1.085       .  S
C1554      C1557   1.442       .  S
C1557      N1559   1.157       .  T
C1558      N1560   1.157       .  T
C1561      C1562   1.404       .  A
C1561      C1566   1.412       .  A
C1562      C1563   1.400       .  A
C1562      H1567   1.085       .  S
C1563      C1564   1.413       .  A
C1563      C1570   1.443       .  S
C1564      C1565   1.404       .  A
C1565      C1566   1.400       .  A
C1565      H1568   1.085       .  S
C1566      C1569   1.444       .  S
C1569      N1571   1.157       .  T
C1570      N1572   1.157       .  T
C1573      C1574   1.395       .  A
C1573      C1578   1.410       .  A
C1574      C1575   1.394       .  A
C1574      H1579   1.086       .  S
C1575      C1576   1.420       .  A
C1575      C1582   1.444       .  S
C1576      C1577   1.407       .  A
C1577      C1578   1.400       .  A
C1577      H1580   1.084       .  S
C1578      C1581   1.444       .  S
C1581      N1583   1.157       .  T
C1582      N1584   1.157       .  T
C1585      C1586   1.400       .  A
C1585      C1590   1.412       .  A
C1586      C1587   1.398       .  A
C1586      H1591   1.085       .  S
C1587      C1588   1.416       .  A
C1587      C1594   1.440       .  S
C1588      C1589   1.409       .  A
C1589      C1590   1.403       .  A
C1589      H1592   1.084       .  S
C1590      C1593   1.444   1_565  S
C1593      N1595   1.157       .  T
C1594      N1596   1.156       .  T
C1597      C1598   1.406       .  A
C1597      C1602   1.412       .  A
C1598      C1599   1.403       .  A
C1598      H1603   1.085       .  S
C1599      C1600   1.413       .  A
C1599      C1606   1.444       .  S
C1600      C1601   1.401       .  A
C1601      C1602   1.394       .  A
C1601      H1604   1.085       .  S
C1602      C1605   1.442       .  S
C1605      N1607   1.157       .  T
C1606      N1608   1.157       .  T
C1609      C1610   1.412       .  A
C1609      C1614   1.415       .  A
C1610      C1611   1.403       .  A
C1610      H1615   1.083       .  S
C1611      C1612   1.409       .  A
C1611      C1618   1.444       .  S
C1612      C1613   1.400       .  A
C1613      C1614   1.395       .  A
C1613      H1616   1.086       .  S
C1614      C1617   1.442       .  S
C1617      N1619   1.157       .  T
C1621      C1622   1.405       .  A
C1621      C1626   1.419       .  A
C1622      C1623   1.398       .  A
C1622      H1627   1.085       .  S
C1623      C1624   1.409       .  A
C1623      C1630   1.441       .  S
C1624      C1625   1.403       .  A
C1625      C1626   1.404       .  A
C1625      H1628   1.085       .  S
C1626      C1629   1.444       .  S
C1629      N1631   1.157       .  T
C1630      N1632   1.156       .  T
C1633      C1634   1.403       .  A
C1633      C1638   1.411       .  A
C1634      C1635   1.400       .  A
C1634      H1639   1.085       .  S
C1635      C1636   1.415       .  A
C1635      C1642   1.445       .  S
C1636      C1637   1.402       .  A
C1637      C1638   1.396       .  A
C1637      H1640   1.085       .  S
C1638      C1641   1.442       .  S
C1641      N1643   1.157       .  T
C1645      C1646   1.401       .  A
C1645      C1650   1.411       .  A
C1646      C1647   1.399       .  A
C1646      H1651   1.085       .  S
C1647      C1648   1.413       .  A
C1647      C1654   1.442       .  S
C1648      C1649   1.403       .  A
C1649      C1650   1.401       .  A
C1649      H1652   1.085       .  S
C1650      C1653   1.443       .  S
C1654      N1656   1.157       .  T
C1657      C1658   1.408       .  A
C1657      C1662   1.416       .  A
C1658      C1659   1.401       .  A
C1658      H1663   1.084       .  S
C1659      C1660   1.410       .  A
C1660      C1661   1.400       .  A
C1661      C1662   1.397       .  A
C1661      H1664   1.086       .  S
C1662      C1665   1.441       .  S
C1665      N1667   1.156       .  T
C1666      N1668   1.157       .  T
C1669      C1670   1.404       .  A
C1669      C1674   1.416       .  A
C1670      C1671   1.403       .  A
C1670      H1675   1.085       .  S
C1671      C1672   1.413       .  A
C1671      C1678   1.444       .  S
C1672      C1673   1.404       .  A
C1673      C1674   1.404       .  A
C1673      H1676   1.085       .  S
C1674      C1677   1.444       .  S
C1677      N1679   1.157       .  T
C1678      N1680   1.157       .  T
