geometry optimzed in LAMMPS
_audit_creation_date              2020-11-30 
_audit_creation_method            'lammps2cif' 
_symmetry_space_group_name_H-M    'P1' 
_symmetry_Int_Tables_number       1 
_symmetry_cell_setting            triclinic 
loop_ 
_symmetry_equiv_pos_as_xyz 
  x,y,z 
_cell_length_a                    36.575654824645014 
_cell_length_b                    38.51473162253396 
_cell_length_c                    33.198836635142854 
_cell_angle_alpha                 87.11153367304787 
_cell_angle_beta                  88.91967344342005 
_cell_angle_gamma                 120.20299142440564 
loop_ 
_atom_site_label 
_atom_site_type_symbol 
_atom_site_fract_x 
_atom_site_fract_y 
_atom_site_fract_z 
_atom_site_charge 
C1          C  0.50107848  0.20877817  0.23700424    -0.03180
C2          C  0.15701513  0.20328894  0.24275757    -0.03180
C3          C  0.15078950  0.04777614  0.24594378    -0.03180
C4          C  0.49609470  0.39605272  0.21512813    -0.03180
C5          C  0.34342268  0.41015421  0.23210465    -0.03180
C6          C  0.34252381  0.05911581  0.24299995    -0.03180
O7          O  0.24347201  0.02005642  0.41453196    -0.80830
O8          O  0.28509300  0.10158335  0.06923589    -0.80860
O9          O  0.32099728  0.15264833  0.43347539    -0.80860
O10         O  0.24928694  0.46988644  0.03308644    -0.80810
O11         O  0.32571975  0.14186965  0.99795349    -0.80930
O12         O  0.23281967  0.46502745  0.47094624    -0.80850
O13         O  0.26126494  0.03508937  0.07803880    -0.80830
O14         O  0.30344112  0.07235374  0.43360884    -0.80870
C15         C  0.28221214  0.04679823  0.40809615     1.08860
C16         C  0.28376847  0.07152159  0.08740809     1.08740
C17         C  0.34223691  0.16542878  0.46502982     1.08880
C18         C  0.24439058  0.45166676  0.50099637     1.08760
O19         O  0.16024068  0.45723846  0.44766901    -0.80830
O20         O  0.26626749  0.15658233  0.02927547    -0.80910
O21         O  0.23777475  0.08478489  0.41245012    -0.80840
O22         O  0.17770348  0.01648227  0.06034216    -0.80820
O23         O  0.20491000  0.08028733  0.05190688    -0.80880
O24         O  0.18261442  0.03596541  0.44768249    -0.80840
O25         O  0.16361979  0.45311129  0.01473136    -0.80800
O26         O  0.24759533  0.13544367  0.46942267    -0.80870
Co27       Co  0.20847539  0.00392194  0.46510401     1.51530
Co28       Co  0.26032404  0.10433526  0.01946181     1.51690
Co29       Co  0.27651509  0.10022564  0.45790019     1.51570
Co30       Co  0.21661654  0.99905663  0.04284625     1.51470
O31         O  0.24781903  0.04858315  0.49764952    -1.42770
C32         C  0.14402389  0.43832766  0.48194068     1.08790
C33         C  0.25525653  0.16261353  0.49480321     1.08880
C34         C  0.19896202  0.05744036  0.41495486     1.08810
C35         C  0.19058574  0.04912913  0.07608011     1.08790
O36         O  0.01476139  0.35859711  0.40273190    -0.80830
O37         O  0.47517634  0.34193983  0.02554490    -0.80860
O38         O  0.41090224  0.29979647  0.46520355    -0.80860
O39         O  0.09882816  0.36872958  0.00706564    -0.80810
O40         O  0.39402261  0.27699113  0.02810638    -0.80930
O41         O  0.07589922  0.39236287  0.45877745    -0.80850
O42         O  0.02754857  0.33846778  0.05427138    -0.80830
O43         O  0.45767770  0.30158879  0.39302737    -0.80870
C44         C  0.98741532  0.33557507  0.37918207     1.08860
C45         C  0.50236566  0.35174166  0.05242711     1.08740
C46         C  0.38467221  0.29011051  0.49685940     1.08880
C47         C  0.10359560  0.39829081  0.48379827     1.08760
O48         O  0.10358800  0.33453277  0.44471531    -0.80830
O49         O  0.40938551  0.22292318  0.99322594    -0.80910
O50         O  0.47462018  0.24477937  0.42050823    -0.80840
O51         O  0.00578182  0.25718667  0.04401887    -0.80820
O52         O  0.45551050  0.26858057  0.06210720    -0.80880
O53         O  0.03471089  0.29836480  0.39574262    -0.80840
O54         O  0.07868187  0.28713762  0.99336515    -0.80800
O55         O  0.39365354  0.23042876  0.43151887    -0.80870
Co56       Co  0.05279697  0.34284190  0.42959618     1.51530
Co57       Co  0.44799790  0.28634373  0.00681102     1.51690
Co58       Co  0.44840896  0.27288767  0.44711245     1.51570
Co59       Co  0.04842407  0.31131404  0.02089083     1.51470
O60         O  0.00667254  0.30618846  0.47527453    -1.42770
C61         C  0.10928301  0.31068642  0.46888719     1.08790
C62         C  0.38362946  0.20758760  0.46350740     1.08880
C63         C  0.00412669  0.26323931  0.39293901     1.08810
C64         C  0.48035139  0.25604977  0.07101095     1.08790
O65         O  0.29312412  0.30282709  0.40608106    -0.80830
O66         O  0.28599185  0.36566753  0.04292247    -0.80860
O67         O  0.25981405  0.39990305  0.47084419    -0.80860
O68         O  0.31616599  0.27404396  0.02740771    -0.80810
O69         O  0.22325174  0.38395164  0.02990258    -0.80930
O70         O  0.33040306  0.30331540  0.46874731    -0.80850
O71         O  0.28299321  0.31081980  0.07052834    -0.80830
O72         O  0.30237516  0.35950697  0.42820707    -0.80870
C73         C  0.30696983  0.34028671  0.40017667     1.08860
C74         C  0.29336247  0.34713532  0.07188768     1.08740
C75         C  0.24343401  0.41035564  0.50064298     1.08880
C76         C  0.34281715  0.29071203  0.49784201     1.08760
O77         O  0.27328444  0.22432615  0.45241397    -0.80830
O78         O  0.16637740  0.30698748  0.00480438    -0.80910
O79         O  0.22145824  0.30007316  0.40304525    -0.80840
O80         O  0.19983027  0.25468223  0.05369241    -0.80820
O81         O  0.20694619  0.31043782  0.07387830    -0.80880
O82         O  0.21075253  0.24383179  0.43575850    -0.80840
O83         O  0.23307991  0.21223206  0.00792292    -0.80800
O84         O  0.18174062  0.33259101  0.44387421    -0.80870
Co85       Co  0.26769544  0.27238472  0.45837049     1.51530
Co86       Co  0.22899273  0.33745815  0.01937008     1.51690
Co87       Co  0.24283364  0.34425339  0.44177681     1.51570
Co88       Co  0.25676228  0.26684433  0.03495705     1.51470
O89         O  0.24860674  0.30512795  0.48872914    -1.42770
C90         C  0.25310961  0.20089126  0.48391949     1.08790
C91         C  0.15394239  0.31565760  0.47237933     1.08880
C92         C  0.20671295  0.26216913  0.40472792     1.08810
C93         C  0.19936473  0.27509255  0.08237928     1.08790
C94         C  0.33022345  0.04458263  0.16877790    -0.27010
C95         C  0.32660061  0.06536162  0.20170463    -0.15090
C96         C  0.32029994  0.09822210  0.19135219     0.35540
C97         C  0.30911849  0.10297989  0.15208718    -0.26460
C98         C  0.30797261  0.07774406  0.12260304    -0.15700
C99         C  0.32330100  0.05205706  0.12994800     0.36630
N100        N  0.33057544  0.53245369  0.09767647    -0.89950
H101        H  0.34190615  0.52397976  0.17130427     0.17740
H102        H  0.30040601  0.12552109  0.14505219     0.17730
N103        N  0.32683434  0.12750987  0.21953793    -0.88980
H104        H  0.31051930  0.50139955  0.10309122     0.35110
H105        H  0.36207573  0.53919810  0.09764896     0.40210
H106        H  0.35261907  0.15500822  0.20824881     0.39830
H107        H  0.30051669  0.13134108  0.22002948     0.34720
C108        C  0.34276323  0.04655046  0.31788025    -0.27010
C109        C  0.32036239  0.05207934  0.28532308    -0.15090
C110        C  0.28532437  0.05626551  0.29568817     0.35540
C111        C  0.27752801  0.05926244  0.33627131    -0.26460
C112        C  0.29898257  0.05194762  0.36724987    -0.15700
C113        C  0.33161645  0.04484132  0.35800364     0.36630
N114        N  0.35475984  0.03665044  0.38798364    -0.89950
H115        H  0.37123872  0.04541098  0.31243859     0.17740
H116        H  0.25369964  0.06665971  0.34373623     0.17730
N117        N  0.25574044  0.05556122  0.26768008    -0.88980
H118        H  0.34950881  0.00769722  0.38437630     0.35110
H119        H  0.34391174  0.03632377  0.41734624     0.40210
H120        H  0.25918631  0.04690586  0.23945687     0.39830
H121        H  0.25739155  0.08342546  0.26582000     0.34720
C122        C  0.31218807  0.40133520  0.11828300    -0.27010
C123        C  0.30527911  0.36334468  0.11227757    -0.15090
C124        C  0.30510688  0.33929331  0.14634990     0.35540
C125        C  0.30767448  0.35235992  0.18542472    -0.26460
C126        C  0.32004434  0.39240969  0.19185533    -0.15700
C127        C  0.32464112  0.41792853  0.15559095     0.36630
N128        N  0.34843412  0.46130091  0.15423309    -0.89950
H129        H  0.31298505  0.42007371  0.09240678     0.17740
H130        H  0.30514081  0.33202329  0.21008981     0.17730
N131        N  0.30478079  0.30235602  0.14166406    -0.88980
H132        H  0.34865316  0.47412944  0.12576312     0.35110
H133        H  0.38014733  0.47025824  0.15819106     0.40210
H134        H  0.28111425  0.28003147  0.16128283     0.39830
H135        H  0.33352154  0.30616658  0.15125982     0.34720
C136        C  0.32704378  0.35266573  0.28641607    -0.27010
C137        C  0.32189960  0.38608429  0.27493740    -0.15090
C138        C  0.30994873  0.40211377  0.30871045     0.35540
C139        C  0.30440269  0.38544066  0.34790740    -0.26460
C140        C  0.31582782  0.35738122  0.35810027    -0.15700
C141        C  0.32889377  0.34185555  0.32745426     0.36630
N142        N  0.34642196  0.31701078  0.33878963    -0.89950
H143        H  0.33744756  0.33983571  0.26407409     0.17740
H144        H  0.29330511  0.39700004  0.37144681     0.17730
N145        N  0.30609682  0.43723853  0.30647531    -0.88980
H146        H  0.37602843  0.33561794  0.35013918     0.35110
H147        H  0.34978214  0.30279113  0.31435569     0.40210
H148        H  0.32829991  0.45861958  0.32461817     0.39830
H149        H  0.27566744  0.42960872  0.31709880     0.34720
C150        C  0.30829763  0.45038440  0.22996752    -0.27010
C151        C  0.34690828  0.45053602  0.23367569    -0.15090
C152        C  0.38464101  0.98724782  0.23895061     0.35540
C153        C  0.38139056  0.01980957  0.24790853    -0.26460
C154        C  0.34375231  0.02029777  0.24276351    -0.15700
C155        C  0.30608798  0.98421838  0.23629977     0.36630
N156        N  0.26594661  0.98232777  0.23523322    -0.89950
H157        H  0.27895937  0.42270168  0.22575278     0.17740
H158        H  0.40973424  0.04536843  0.25747525     0.17730
N159        N  0.42646254  0.99362898  0.23201455    -0.88980
H160        H  0.24546419  0.46069665  0.25754985     0.35110
H161        H  0.25342371  0.97277357  0.20717992     0.40210
H162        H  0.44436533  0.50690842  0.25679275     0.39830
H163        H  0.94088965  0.01397634  0.20686225     0.34720
C164        C  0.46351700  0.34479387  0.11468036    -0.27010
C165        C  0.49936138  0.36939698  0.08937579    -0.15090
C166        C  0.03702360  0.39689484  0.10697090     0.35540
C167        C  0.03742660  0.40058255  0.14882687    -0.26460
C168        C  0.49985688  0.38028512  0.17370368    -0.15700
C169        C  0.46413169  0.34832331  0.15653760     0.36630
N170        N  0.42759698  0.32007279  0.18072248    -0.89950
H171        H  0.43576621  0.32027117  0.10245728     0.17740
H172        H  0.06736340  0.42047425  0.16130962     0.17730
N173        N  0.07564149  0.41925687  0.08258445    -0.88980
H174        H  0.42249265  0.29122487  0.17674576     0.35110
H175        H  0.40154201  0.32145963  0.17036773     0.40210
H176        H  0.09764297  0.41197441  0.09383007     0.39830
H177        H  0.08746151  0.44991118  0.08574094     0.34720
C178        C  0.02681444  0.36659205  0.26725577    -0.27010
C179        C  0.99039231  0.36393870  0.25011918    -0.15090
C180        C  0.45195308  0.34043548  0.27359234     0.35540
C181        C  0.45249545  0.33289705  0.31524569    -0.26460
C182        C  0.99032757  0.34557875  0.33456955    -0.15700
C183        C  0.02800594  0.36080380  0.30955519     0.36630
N184        N  0.06832003  0.37313248  0.32590752    -0.89950
H185        H  0.05650996  0.38111356  0.24940264     0.17740
H186        H  0.42279451  0.31692652  0.33277204     0.17730
N187        N  0.41206920  0.32548685  0.25585129    -0.88980
H188        H  0.06752623  0.34826149  0.34063427     0.35110
H189        H  0.07431892  0.39474208  0.34659057     0.40210
H190        H  0.39664139  0.33879754  0.26883120     0.39830
H191        H  0.39423850  0.29433446  0.26246511     0.34720
C192        C  0.44867437  0.41450722  0.25424398    -0.27010
C193        C  0.45977100  0.40555268  0.21666708    -0.15090
C194        C  0.43965538  0.41064776  0.18259756     0.35540
C195        C  0.40424220  0.41394856  0.18847770    -0.26460
C196        C  0.38759098  0.41400083  0.22710017    -0.15700
C197        C  0.41380369  0.41917797  0.25979915     0.36630
N198        N  0.40610102  0.43009990  0.29844725    -0.89950
H199        H  0.46481251  0.41496662  0.28103185     0.17740
H200        H  0.39042551  0.41635870  0.16110590     0.17730
N201        N  0.45477306  0.41427979  0.14156202    -0.88980
H202        H  0.40416722  0.40883178  0.32047927     0.35110
H203        H  0.43259668  0.45738198  0.30468073     0.40210
H204        H  0.96097160  0.44206076  0.12833672     0.39830
H205        H  0.43013854  0.39231668  0.12584696     0.34720
C206        C  0.20769858  0.08421274  0.18448605    -0.27010
C207        C  0.18183140  0.04824309  0.20975107    -0.15090
C208        C  0.17175291  0.01272501  0.18942497     0.35540
C209        C  0.17479706  0.01376085  0.14650572    -0.26460
C210        C  0.18974598  0.04978102  0.12186928    -0.15700
C211        C  0.20834710  0.08568345  0.14177819     0.36630
N212        N  0.22872578  0.12392009  0.11883835    -0.89950
H213        H  0.22681046  0.11257399  0.19695710     0.17740
H214        H  0.16398841  0.48563107  0.13248404     0.17730
N215        N  0.15513189  0.47467671  0.21175929    -0.88980
H216        H  0.24238893  0.14761925  0.13785054     0.35110
H217        H  0.20513508  0.12663737  0.10425561     0.40210
H218        H  0.17535904  0.46352915  0.20586536     0.39830
H219        H  0.12557391  0.45456878  0.20124792     0.34720
C220        C  0.15544115  0.07139879  0.31947696    -0.27010
C221        C  0.16264331  0.04720039  0.29216784    -0.15090
C222        C  0.16995413  0.01767467  0.31173905     0.35540
C223        C  0.17563356  0.01751859  0.35392502    -0.26460
C224        C  0.17630956  0.04740870  0.37730669    -0.15700
C225        C  0.16490337  0.07379902  0.35989713     0.36630
N226        N  0.16234169  0.10348524  0.38248824    -0.89950
H227        H  0.14062930  0.08844382  0.31044242     0.17740
H228        H  0.18268125  0.99561876  0.36765430     0.17730
N229        N  0.16855230  0.98596226  0.29015186    -0.88980
H230        H  0.18781419  0.13165780  0.37227783     0.35110
H231        H  0.16519000  0.09962748  0.41339175     0.40210
H232        H  0.14330492  0.95873452  0.30269873     0.39830
H233        H  0.19627756  0.98512313  0.29477598     0.34720
C234        C  0.04548612  0.44785243  0.26302160    -0.27010
C235        C  0.03462888  0.43806472  0.22288044    -0.15090
C236        C  0.05352245  0.97129711  0.19359873     0.35540
C237        C  0.09088870  0.00559014  0.20176506    -0.26460
C238        C  0.10643326  0.01153522  0.24083805    -0.15700
C239        C  0.07880199  0.48441618  0.27245851     0.36630
N240        N  0.08099957  0.49431865  0.31370128    -0.89950
H241        H  0.02712150  0.42793133  0.28860760     0.17740
H242        H  0.10725411  0.02893956  0.17763928     0.17730
N243        N  0.03517889  0.97148766  0.15606315    -0.88980
H244        H  0.05304265  0.49379210  0.32223115     0.35110
H245        H  0.08254581  0.97208713  0.33177042     0.40210
H246        H  0.02811130  0.99465513  0.15551574     0.39830
H247        H  0.05785034  0.97866224  0.13262140     0.34720
C248        C  0.20097691  0.21591894  0.17602548    -0.27010
C249        C  0.18860902  0.23268873  0.20724502    -0.15090
C250        C  0.19430666  0.27196120  0.19720894     0.35540
C251        C  0.20149348  0.28669395  0.15631712    -0.26460
C252        C  0.20147553  0.26316262  0.12513204    -0.15700
C253        C  0.20502621  0.22937836  0.13554812     0.36630
N254        N  0.21150263  0.20762164  0.10516845    -0.89950
H255        H  0.20213986  0.18866685  0.18069597     0.17740
H256        H  0.20245186  0.31485487  0.14879717     0.17730
N257        N  0.18625087  0.29477160  0.22554528    -0.88980
H258        H  0.18620145  0.17795329  0.10785949     0.35110
H259        H  0.23944820  0.20744215  0.11069222     0.40210
H260        H  0.17333762  0.27864734  0.25305622     0.39830
H261        H  0.16276666  0.29997452  0.21434068     0.34720
C262        C  0.20938821  0.24846902  0.29405324    -0.27010
C263        C  0.16913443  0.21610142  0.28734288    -0.15090
C264        C  0.14472603  0.19271658  0.32371933     0.35540
C265        C  0.15389545  0.20986599  0.36136098    -0.26460
C266        C  0.19355236  0.24270907  0.36612388    -0.15700
C267        C  0.22326123  0.25517325  0.33340682     0.36630
N268        N  0.26410170  0.26084509  0.34083579    -0.89950
H269        H  0.23274431  0.26308074  0.26919030     0.17740
H270        H  0.13277354  0.19443176  0.38768819     0.17730
N271        N  0.11811442  0.14995210  0.32507163    -0.88980
H272        H  0.27795690  0.25841551  0.31406966     0.35110
H273        H  0.26008612  0.23657722  0.35992573     0.40210
H274        H  0.08997081  0.14201172  0.34149276     0.39830
H275        H  0.13293200  0.13744167  0.34165062     0.34720
C276        C  0.11841506  0.12918480  0.22741128    -0.27010
C277        C  0.15436269  0.16268009  0.24109013    -0.15090
C278        C  0.18950483  0.15880694  0.25085357     0.35540
C279        C  0.18718237  0.12236660  0.24804111    -0.26460
C280        C  0.14958064  0.08727476  0.23885493    -0.15700
C281        C  0.11354376  0.09122006  0.23101238     0.36630
N282        N  0.07105249  0.05805053  0.23062370    -0.89950
H283        H  0.09186801  0.13098207  0.21619413     0.17740
H284        H  0.21430942  0.12040274  0.25770112     0.17730
N285        N  0.22874942  0.19235437  0.26139737    -0.88980
H286        H  0.05283142  0.06038778  0.25384301     0.35110
H287        H  0.05846715  0.05996809  0.20311304     0.40210
H288        H  0.25257430  0.19653624  0.24044694     0.39830
H289        H  0.23604798  0.18523653  0.28982539     0.34720
C290        C  0.47797789  0.20647248  0.12134693    -0.27010
C291        C  0.48227124  0.24377962  0.11334399    -0.15090
C292        C  0.99620568  0.27091883  0.14428950     0.35540
C293        C  0.99493785  0.25683667  0.18442387    -0.26460
C294        C  0.49330906  0.22005566  0.19289530    -0.15700
C295        C  0.49031970  0.19756679  0.15801293     0.36630
N296        N  0.50888159  0.17263983  0.15553419    -0.89950
H297        H  0.47282323  0.18738184  0.09661132     0.17740
H298        H  0.00226367  0.27765330  0.20773750     0.17730
N299        N  0.01995959  0.31322328  0.13427758    -0.88980
H300        H  0.53456976  0.18669177  0.13442923     0.35110
H301        H  0.48730424  0.14568020  0.14358204     0.40210
H302        H  0.04762350  0.31893944  0.11842964     0.39830
H303        H  0.03060085  0.32861501  0.16046242     0.34720
C304        C  0.46956030  0.23834491  0.28618500    -0.27010
C305        C  0.00549363  0.23893381  0.26917360    -0.15090
C306        C  0.04335747  0.26054685  0.28974137     0.35540
C307        C  0.04050637  0.26208937  0.33140693    -0.26460
C308        C  0.00156337  0.25010407  0.35177273    -0.15700
C309        C  0.46662838  0.24203958  0.32809394     0.36630
N310        N  0.42775223  0.23568699  0.34642279    -0.89950
H311        H  0.44144304  0.22816290  0.26904305     0.17740
H312        H  0.06932705  0.27481044  0.34780501     0.17730
N313        N  0.08416492  0.27999109  0.26853662    -0.88980
H314        H  0.40341570  0.20677948  0.34139137     0.35110
H315        H  0.41992322  0.25521940  0.33130856     0.40210
H316        H  0.08544318  0.30230706  0.24828950     0.39830
H317        H  0.10844935  0.29456151  0.28833046     0.34720
C318        C  0.07201528  0.22495425  0.20532886    -0.27010
C319        C  0.04111184  0.20614728  0.23715035    -0.15090
C320        C  0.04682004  0.18261075  0.26780579     0.35540
C321        C  0.07976465  0.17588312  0.26302130    -0.26460
C322        C  0.11336429  0.19901940  0.23538899    -0.15700
C323        C  0.10348375  0.21541525  0.20120793     0.36630
N324        N  0.11816253  0.21387461  0.16140175    -0.89950
H325        H  0.06960046  0.24361960  0.18133652     0.17740
H326        H  0.07613668  0.14937067  0.27799482     0.17730
N327        N  0.01884377  0.16438426  0.30304549    -0.88980
H328        H  0.10782382  0.22703894  0.13953059     0.35110
H329        H  0.10514394  0.18357303  0.15560739     0.40210
H330        H  0.52569565  0.18708163  0.32248704     0.39830
H331        H  0.02463607  0.14370694  0.31907359     0.34720
C332        C  0.39230698  0.12559525  0.27197779    -0.26800
C333        C  0.38570134  0.09715185  0.24361817    -0.15090
C334        C  0.42020321  0.10456312  0.21759613     0.35540
C335        C  0.45973314  0.13474241  0.22597991    -0.26460
C336        C  0.46412172  0.16589310  0.24866268    -0.15700
C337        C  0.43245694  0.15532397  0.27914822     0.36630
N338        N  0.44295826  0.16033660  0.32071464    -0.89950
H339        H  0.36745724  0.12263096  0.29247331     0.17740
H340        H  0.98692780  0.13413908  0.21417659     0.17730
N341        N  0.41600184  0.08047252  0.18457328    -0.88980
H342        H  0.44417534  0.13496139  0.33147687     0.35110
H343        H  0.41785291  0.15871878  0.33780457     0.40210
H344        H  0.42138221  0.09797202  0.15769250     0.39830
H345        H  0.93893808  0.07192201  0.18572330     0.34720
C346        C  0.50107728  0.20877658  0.73700411    -0.03180
C347        C  0.15701449  0.20328891  0.74275840    -0.03180
C348        C  0.15078658  0.04777499  0.74594575    -0.03180
C349        C  0.49609340  0.39605236  0.71512811    -0.03180
C350        C  0.34342099  0.41015325  0.73210421    -0.03180
C351        C  0.34252159  0.05911517  0.74299977    -0.03180
O352        O  0.24347178  0.02005669  0.91453257    -0.80830
O353        O  0.28509287  0.10158327  0.56923535    -0.80860
O354        O  0.32099519  0.15264865  0.93347629    -0.80860
O355        O  0.24928268  0.46988440  0.53308925    -0.80810
O356        O  0.32571914  0.14187071  0.49795363    -0.80930
O357        O  0.23281845  0.46502671  0.97094514    -0.80850
O358        O  0.26126940  0.03509012  0.57803660    -0.80830
O359        O  0.30344027  0.07235475  0.93360918    -0.80870
C360        C  0.28221160  0.04679915  0.90809648     1.08860
C361        C  0.28377104  0.07152235  0.58740646     1.08740
C362        C  0.34223630  0.16542841  0.96503003     1.08880
C363        C  0.24439217  0.45166749  0.00099422     1.08760
O364        O  0.16024000  0.45723891  0.94766904    -0.80830
O365        O  0.26626487  0.15658069  0.52927590    -0.80910
O366        O  0.23777260  0.08478421  0.91245118    -0.80840
O367        O  0.17770600  0.01647978  0.56034465    -0.80820
O368        O  0.20490931  0.08028459  0.55190760    -0.80880
O369        O  0.18261322  0.03596401  0.94768391    -0.80840
O370        O  0.16361772  0.45311155  0.51473158    -0.80800
O371        O  0.24759269  0.13544255  0.96942416    -0.80870
Co372      Co  0.20847539  0.00392149  0.96510482     1.51530
Co373      Co  0.26032312  0.10433450  0.51946165     1.51690
Co374      Co  0.27651326  0.10022555  0.95790099     1.51570
Co375      Co  0.21662027  0.99905683  0.54284519     1.51470
O376        O  0.24781842  0.04858288  0.99765051    -1.42770
C377        C  0.14402458  0.43832777  0.98194089     1.08790
C378        C  0.25525655  0.16261384  0.99480364     1.08880
C379        C  0.19896012  0.05743906  0.91495625     1.08810
C380        C  0.19058675  0.04912693  0.57608156     1.08790
O381        O  0.01476195  0.35859804  0.90273274    -0.80830
O382        O  0.47517706  0.34194044  0.52554492    -0.80860
O383        O  0.41090216  0.29979627  0.96520332    -0.80860
O384        O  0.09882749  0.36872939  0.50706510    -0.80810
O385        O  0.39402304  0.27699177  0.52810671    -0.80930
O386        O  0.07589950  0.39236318  0.95877854    -0.80850
O387        O  0.02754818  0.33846758  0.55427102    -0.80830
O388        O  0.45767702  0.30158757  0.89302692    -0.80870
C389        C  0.98741599  0.33557624  0.87918268     1.08860
C390        C  0.50236625  0.35174218  0.55242725     1.08740
C391        C  0.38467209  0.29011026  0.99685914     1.08880
C392        C  0.10359618  0.39829103  0.98379897     1.08760
O393        O  0.10358850  0.33453333  0.94471550    -0.80830
O394        O  0.40938577  0.22292374  0.49322615    -0.80910
O395        O  0.47461928  0.24477820  0.92050861    -0.80840
O396        O  0.00578138  0.25718646  0.54401868    -0.80820
O397        O  0.45551092  0.26858108  0.56210741    -0.80880
O398        O  0.03471152  0.29836588  0.89574272    -0.80840
O399        O  0.07868120  0.28713718  0.49336505    -0.80800
O400        O  0.39365285  0.23042826  0.93151888    -0.80870
Co401      Co  0.05279748  0.34284261  0.92959671     1.51530
Co402      Co  0.44799834  0.28634431  0.50681124     1.51690
Co403      Co  0.44840842  0.27288705  0.94711232     1.51570
Co404      Co  0.04842355  0.31131378  0.52089052     1.51470
O405        O  0.00667300  0.30618878  0.97527482    -1.42770
C406        C  0.10928360  0.31068691  0.96888719     1.08790
C407        C  0.38362897  0.20758709  0.96350736     1.08880
C408        C  0.00412725  0.26324050  0.89293876     1.08810
C409        C  0.48035163  0.25605005  0.57101109     1.08790
O410        O  0.29312397  0.30282646  0.90608065    -0.80830
O411        O  0.28599146  0.36566699  0.54292216    -0.80860
O412        O  0.25981542  0.39990347  0.97084288    -0.80860
O413        O  0.31616576  0.27404357  0.52740782    -0.80810
O414        O  0.22325091  0.38395080  0.52990421    -0.80930
O415        O  0.33040328  0.30331541  0.96874697    -0.80850
O416        O  0.28299286  0.31081936  0.57052822    -0.80830
O417        O  0.30237545  0.35950659  0.92820620    -0.80870
C418        C  0.30696963  0.34028603  0.90017586     1.08860
C419        C  0.29336213  0.34713489  0.57188739     1.08740
C420        C  0.24343518  0.41035626  0.00064124     1.08880
C421        C  0.34281729  0.29071214  0.99784179     1.08760
O422        O  0.27328450  0.22432618  0.95241405    -0.80830
O423        O  0.16637670  0.30698723  0.50480490    -0.80910
O424        O  0.22145811  0.30007282  0.90304532    -0.80840
O425        O  0.19982993  0.25468127  0.55369294    -0.80820
O426        O  0.20694593  0.31043698  0.57387867    -0.80880
O427        O  0.21075252  0.24383175  0.93575910    -0.80840
O428        O  0.23307978  0.21223161  0.50792289    -0.80800
O429        O  0.18174127  0.33259171  0.94387389    -0.80870
Co430      Co  0.26769568  0.27238479  0.95837050     1.51530
Co431      Co  0.22899210  0.33745766  0.51937045     1.51690
Co432      Co  0.24283417  0.34425356  0.94177617     1.51570
Co433      Co  0.25676197  0.26684378  0.53495715     1.51470
O434        O  0.24860767  0.30512867  0.98872884    -1.42770
C435        C  0.25310965  0.20089151  0.98391967     1.08790
C436        C  0.15394304  0.31565809  0.97237900     1.08880
C437        C  0.20671276  0.26216880  0.90472842     1.08810
C438        C  0.19936443  0.27509170  0.58237972     1.08790
C439        C  0.33022195  0.04458180  0.66877780    -0.27010
C440        C  0.32659811  0.06536041  0.70170442    -0.15090
C441        C  0.32029760  0.09822098  0.69135173     0.35540
C442        C  0.30911826  0.10297982  0.65208612    -0.26460
C443        C  0.30797521  0.07774560  0.62260150    -0.15700
C444        C  0.32330367  0.05205881  0.62994716     0.36630
N445        N  0.33057050  0.53245051  0.59767725    -0.89950
H446        H  0.34190757  0.52398076  0.67130404     0.17740
H447        H  0.30040519  0.12552059  0.64505096     0.17730
N448        N  0.32683008  0.12750785  0.71953790    -0.88980
H449        H  0.31051450  0.50139656  0.60309391     0.35110
H450        H  0.36207083  0.53919488  0.59764756     0.40210
H451        H  0.35261502  0.15500659  0.70824997     0.39830
H452        H  0.30051213  0.13133860  0.72002825     0.34720
C453        C  0.34276234  0.04655156  0.81788020    -0.27010
C454        C  0.32036073  0.05207940  0.78532314    -0.15090
C455        C  0.28532252  0.05626522  0.79568844     0.35540
C456        C  0.27752654  0.05926261  0.83627159    -0.26460
C457        C  0.29898191  0.05194881  0.86725007    -0.15700
C458        C  0.33161619  0.04484313  0.85800366     0.36630
N459        N  0.35476056  0.03665345  0.88798352    -0.89950
H460        H  0.37123799  0.04541244  0.81243838     0.17740
H461        H  0.25369775  0.06665932  0.84373665     0.17730
N462        N  0.25573801  0.05556005  0.76768056    -0.88980
H463        H  0.34950991  0.00770027  0.88437681     0.35110
H464        H  0.34391303  0.03632738  0.91734619     0.40210
H465        H  0.25918417  0.04690498  0.73945729     0.39830
H466        H  0.25738837  0.08342397  0.76582051     0.34720
C467        C  0.31218722  0.40133478  0.61828249    -0.27010
C468        C  0.30527849  0.36334430  0.61227718    -0.15090
C469        C  0.30510591  0.33929288  0.64634958     0.35540
C470        C  0.30767268  0.35235927  0.68542434    -0.26460
C471        C  0.32004274  0.39240909  0.69185486    -0.15700
C472        C  0.32463991  0.41792804  0.65559049     0.36630
N473        N  0.34843308  0.46130041  0.65423270    -0.89950
H474        H  0.31298442  0.42007331  0.59240618     0.17740
H475        H  0.30513843  0.33202247  0.71008949     0.17730
N476        N  0.30478033  0.30235580  0.64166392    -0.88980
H477        H  0.34865230  0.47412901  0.62576270     0.35110
H478        H  0.38014623  0.47025755  0.65819076     0.40210
H479        H  0.28111363  0.28003104  0.66128239     0.39830
H480        H  0.33352101  0.30616658  0.65126018     0.34720
C481        C  0.32704194  0.35266435  0.78641506    -0.27010
C482        C  0.32189733  0.38608270  0.77493654    -0.15090
C483        C  0.30994559  0.40211148  0.80870952     0.35540
C484        C  0.30440078  0.38543898  0.84790658    -0.26460
C485        C  0.31582660  0.35737999  0.85809931    -0.15700
C486        C  0.32889210  0.34185412  0.82745315     0.36630
N487        N  0.34642074  0.31700969  0.83878825    -0.89950
H488        H  0.33744609  0.33983464  0.76407303     0.17740
H489        H  0.29330300  0.39699810  0.87144608     0.17730
N490        N  0.30609067  0.43723455  0.80647403    -0.88980
H491        H  0.37602766  0.33561722  0.85013677     0.35110
H492        H  0.34978002  0.30278943  0.81435441     0.40210
H493        H  0.32829309  0.45861669  0.82461650     0.39830
H494        H  0.27566082  0.42960297  0.81709776     0.34720
C495        C  0.30829742  0.45038474  0.72996682    -0.27010
C496        C  0.34690748  0.45053546  0.73367555    -0.15090
C497        C  0.38464014  0.98724820  0.73895113     0.35540
C498        C  0.38138905  0.01980961  0.74790902    -0.26460
C499        C  0.34375050  0.02029728  0.74276391    -0.15700
C500        C  0.30608642  0.98421756  0.73630053     0.36630
N501        N  0.26594479  0.98232643  0.73523408    -0.89950
H502        H  0.27895890  0.42270239  0.72575174     0.17740
H503        H  0.40973252  0.04536866  0.75747578     0.17730
N504        N  0.42646190  0.99362977  0.73201567    -0.88980
H505        H  0.24546467  0.46069791  0.75754918     0.35110
H506        H  0.25342180  0.97277189  0.70718089     0.40210
H507        H  0.44436528  0.50690707  0.75679137     0.39830
H508        H  0.94088869  0.01397563  0.70686229     0.34720
C509        C  0.46351696  0.34479430  0.61467997    -0.27010
C510        C  0.49936163  0.36939745  0.58937579    -0.15090
C511        C  0.03702389  0.39689457  0.60697064     0.35540
C512        C  0.03742733  0.40058232  0.64882664    -0.26460
C513        C  0.49985614  0.38028532  0.67370359    -0.15700
C514        C  0.46413122  0.34832352  0.65653721     0.36630
N515        N  0.42759634  0.32007281  0.68072179    -0.89950
H516        H  0.43576633  0.32027164  0.60245664     0.17740
H517        H  0.06736437  0.42047370  0.66130922     0.17730
N518        N  0.07564166  0.41925622  0.58258395    -0.88980
H519        H  0.42249220  0.29122495  0.67674504     0.35110
H520        H  0.40154142  0.32145957  0.67036680     0.40210
H521        H  0.09764297  0.41197343  0.59382936     0.39830
H522        H  0.08746209  0.44991059  0.58574039     0.34720
C523        C  0.02681571  0.36659325  0.76725647    -0.27010
C524        C  0.99039367  0.36393982  0.75011954    -0.15090
C525        C  0.45195188  0.34043453  0.77359186     0.35540
C526        C  0.45249434  0.33289568  0.81524512    -0.26460
C527        C  0.99032857  0.34558018  0.83457017    -0.15700
C528        C  0.02800706  0.36080531  0.80955598     0.36630
N529        N  0.06832115  0.37313446  0.82590856    -0.89950
H530        H  0.05651129  0.38111462  0.74940346     0.17740
H531        H  0.42279345  0.31692502  0.83277154     0.17730
N532        N  0.41206798  0.32548593  0.75585084    -0.88980
H533        H  0.06752760  0.34826374  0.84063563     0.35110
H534        H  0.07431970  0.39474418  0.84659139     0.40210
H535        H  0.39664009  0.33879645  0.76883097     0.39830
H536        H  0.39423736  0.29433350  0.76246440     0.34720
C537        C  0.44867247  0.41450609  0.75424392    -0.27010
C538        C  0.45976942  0.40555188  0.71666700    -0.15090
C539        C  0.43965385  0.41064693  0.68259740     0.35540
C540        C  0.40424040  0.41394726  0.68847746    -0.26460
C541        C  0.38758906  0.41399943  0.72709989    -0.15700
C542        C  0.41380165  0.41917663  0.75979898     0.36630
N543        N  0.40609877  0.43009855  0.79844700    -0.89950
H544        H  0.46481059  0.41496552  0.78103183     0.17740
H545        H  0.39042377  0.41635737  0.66110562     0.17730
N546        N  0.45477189  0.41427949  0.64156190    -0.88980
H547        H  0.40416514  0.40883058  0.82047910     0.35110
H548        H  0.43259427  0.45738074  0.80468047     0.40210
H549        H  0.96097321  0.44206184  0.62833669     0.39830
H550        H  0.43013764  0.39231639  0.62584657     0.34720
C551        C  0.20769490  0.08421168  0.68448711    -0.27010
C552        C  0.18182814  0.04824210  0.70975251    -0.15090
C553        C  0.17175003  0.01272384  0.68942689     0.35540
C554        C  0.17479548  0.01375937  0.64650774    -0.26460
C555        C  0.18974488  0.04977927  0.62187070    -0.15700
C556        C  0.20834479  0.08568187  0.64177919     0.36630
N557        N  0.22872358  0.12391824  0.61883886    -0.89950
H558        H  0.22680570  0.11257336  0.69695770     0.17740
H559        H  0.16398977  0.48563277  0.63248194     0.17730
N560        N  0.15513528  0.47467796  0.71175737    -0.88980
H561        H  0.24238602  0.14761770  0.63785076     0.35110
H562        H  0.20513307  0.12663504  0.60425513     0.40210
H563        H  0.17536247  0.46353061  0.70586264     0.39830
H564        H  0.12557710  0.45456996  0.70124640     0.34720
C565        C  0.15543763  0.07139661  0.81947925    -0.27010
C566        C  0.16264045  0.04719887  0.79216976    -0.15090
C567        C  0.16995199  0.01767344  0.81174059     0.35540
C568        C  0.17563185  0.01751736  0.85392645    -0.26460
C569        C  0.17630716  0.04740693  0.87730843    -0.15700
C570        C  0.16489973  0.07379652  0.85989946     0.36630
N571        N  0.16233691  0.10348177  0.88249122    -0.89950
H572        H  0.14062536  0.08844129  0.81044489     0.17740
H573        H  0.18268036  0.99561796  0.86765539     0.17730
N574        N  0.16855050  0.98596130  0.79015321    -0.88980
H575        H  0.18780988  0.13165460  0.87228225     0.35110
H576        H  0.16518385  0.09962273  0.91339482     0.40210
H577        H  0.14330338  0.95873340  0.80270010     0.39830
H578        H  0.19627596  0.98512248  0.79477711     0.34720
C579        C  0.04548830  0.44785383  0.76302080    -0.27010
C580        C  0.03463083  0.43806555  0.72287981    -0.15090
C581        C  0.05351993  0.97129664  0.69360004     0.35540
C582        C  0.09088573  0.00558988  0.70176688    -0.26460
C583        C  0.10643030  0.01153429  0.74083987    -0.15700
C584        C  0.07880442  0.48441766  0.77245723     0.36630
N585        N  0.08100192  0.49432097  0.81369971    -0.89950
H586        H  0.02712365  0.42793320  0.78860705     0.17740
H587        H  0.10725107  0.02893966  0.67764141     0.17730
N588        N  0.03517657  0.97148732  0.65606436    -0.88980
H589        H  0.05304513  0.49379489  0.82222906     0.35110
H590        H  0.08254366  0.97208420  0.83177151     0.40210
H591        H  0.02810847  0.99465445  0.65551716     0.39830
H592        H  0.05784830  0.97866242  0.63262273     0.34720
C593        C  0.20097610  0.21591817  0.67602635    -0.27010
C594        C  0.18860851  0.23268834  0.70724574    -0.15090
C595        C  0.19430646  0.27196088  0.69720942     0.35540
C596        C  0.20149315  0.28669335  0.65631751    -0.26460
C597        C  0.20147503  0.26316180  0.62513258    -0.15700
C598        C  0.20502551  0.22937746  0.63554891     0.36630
N599        N  0.21150196  0.20762061  0.60516940    -0.89950
H600        H  0.20213873  0.18866593  0.68069708     0.17740
H601        H  0.20245173  0.31485434  0.64879741     0.17730
N602        N  0.18625120  0.29477170  0.72554564    -0.88980
H603        H  0.18620080  0.17795224  0.60786057     0.35110
H604        H  0.23944754  0.20744118  0.61069328     0.40210
H605        H  0.17333853  0.27864788  0.75305688     0.39830
H606        H  0.16276679  0.29997445  0.71434130     0.34720
C607        C  0.20938812  0.24846859  0.79405404    -0.27010
C608        C  0.16913410  0.21610137  0.78734364    -0.15090
C609        C  0.14472563  0.19271645  0.82372001     0.35540
C610        C  0.15389503  0.20986580  0.86136164    -0.26460
C611        C  0.19355215  0.24270852  0.86612459    -0.15700
C612        C  0.22326112  0.25517235  0.83340766     0.36630
N613        N  0.26410099  0.26084266  0.84083678    -0.89950
H614        H  0.23274429  0.26308012  0.76919112     0.17740
H615        H  0.13277306  0.19443166  0.88768883     0.17730
N616        N  0.11811480  0.14995186  0.82507230    -0.88980
H617        H  0.27795563  0.25841209  0.81407080     0.35110
H618        H  0.26008448  0.23657465  0.85992708     0.40210
H619        H  0.08997132  0.14201075  0.84149408     0.39830
H620        H  0.13293342  0.13744211  0.84165062     0.34720
C621        C  0.11841292  0.12918425  0.72741362    -0.27010
C622        C  0.15436131  0.16267971  0.74109125    -0.15090
C623        C  0.18950314  0.15880610  0.75085490     0.35540
C624        C  0.18717981  0.12236530  0.74804365    -0.26460
C625        C  0.14957790  0.08727372  0.73885748    -0.15700
C626        C  0.11354114  0.09121931  0.73101536     0.36630
N627        N  0.07104963  0.05804992  0.73062797    -0.89950
H628        H  0.09186575  0.13098162  0.71619698     0.17740
H629        H  0.21430678  0.12040113  0.75770338     0.17730
N630        N  0.22874827  0.19235346  0.76139771    -0.88980
H631        H  0.05282936  0.06038795  0.75384753     0.35110
H632        H  0.05846358  0.05996695  0.70311758     0.40210
H633        H  0.25257267  0.19653429  0.74044722     0.39830
H634        H  0.23604702  0.18523616  0.78982588     0.34720
C635        C  0.47797800  0.20647233  0.62134653    -0.27010
C636        C  0.48227112  0.24377942  0.61334404    -0.15090
C637        C  0.99620589  0.27091930  0.64428897     0.35540
C638        C  0.99493789  0.25683742  0.68442346    -0.26460
C639        C  0.49330807  0.22005450  0.69289527    -0.15700
C640        C  0.49031909  0.19756604  0.65801265     0.36630
N641        N  0.50888032  0.17263852  0.65553407    -0.89950
H642        H  0.47282377  0.18738206  0.59661067     0.17740
H643        H  0.00226398  0.27765433  0.70773684     0.17730
N644        N  0.01996058  0.31322365  0.63427662    -0.88980
H645        H  0.53456880  0.18669025  0.63442943     0.35110
H646        H  0.48730276  0.14567912  0.64358165     0.40210
H647        H  0.04762417  0.31893905  0.61842858     0.39830
H648        H  0.03060238  0.32861558  0.66046128     0.34720
C649        C  0.46955984  0.23834368  0.78618528    -0.27010
C650        C  0.00549328  0.23893512  0.76917322    -0.15090
C651        C  0.04335738  0.26054900  0.78974037     0.35540
C652        C  0.04050679  0.26209183  0.83140591    -0.26460
C653        C  0.00156383  0.25010583  0.85177221    -0.15700
C654        C  0.46662764  0.24203786  0.82809429     0.36630
N655        N  0.42775149  0.23568545  0.84642295    -0.89950
H656        H  0.44144282  0.22816240  0.76904311     0.17740
H657        H  0.06932773  0.27481335  0.84780360     0.17730
N658        N  0.08416454  0.27999346  0.76853505    -0.88980
H659        H  0.40341485  0.20677809  0.84139120     0.35110
H660        H  0.41992284  0.25521818  0.83130884     0.40210
H661        H  0.08544211  0.30230899  0.74828774     0.39830
H662        H  0.10844922  0.29456445  0.78832849     0.34720
C663        C  0.07201501  0.22495472  0.70532904    -0.27010
C664        C  0.04111173  0.20614849  0.73715075    -0.15090
C665        C  0.04682009  0.18261272  0.76780690     0.35540
C666        C  0.07976455  0.17588486  0.76302287    -0.26460
C667        C  0.11336392  0.19902005  0.73538995    -0.15700
C668        C  0.10348333  0.21541545  0.70120854     0.36630
N669        N  0.11816204  0.21387422  0.66140253    -0.89950
H670        H  0.06960013  0.24361965  0.68133628     0.17740
H671        H  0.07613653  0.14937287  0.77799736     0.17730
N672        N  0.01884385  0.16438687  0.80304672    -0.88980
H673        H  0.10782338  0.22703832  0.63953107     0.35110
H674        H  0.10514335  0.18357253  0.65560862     0.40210
H675        H  0.52569213  0.18707720  0.82248606     0.39830
H676        H  0.02463626  0.14370993  0.81907549     0.34720
C677        C  0.39230495  0.12559532  0.77197621    -0.26800
C678        C  0.38569914  0.09715142  0.74361715    -0.15090
C679        C  0.42020098  0.10456221  0.71759526     0.35540
C680        C  0.45973106  0.13474099  0.72597930    -0.26460
C681        C  0.46412011  0.16589171  0.74866223    -0.15700
C682        C  0.43245513  0.15532308  0.77914736     0.36630
N683        N  0.44295604  0.16033441  0.82071396    -0.89950
H684        H  0.36745515  0.12263158  0.79247129     0.17740
H685        H  0.98692845  0.13414016  0.71417740     0.17730
N686        N  0.41599952  0.08047141  0.68457257    -0.88980
H687        H  0.44417280  0.13495880  0.83147537     0.35110
H688        H  0.41785068  0.15871640  0.83780406     0.40210
H689        H  0.42138043  0.09797096  0.65769172     0.39830
H690        H  0.93893944  0.07192270  0.68572450     0.34720
C691        C  0.50107747  0.70877703  0.23700408    -0.03180
C692        C  0.15701495  0.70328905  0.24275830    -0.03180
C693        C  0.15078671  0.54777501  0.24594562    -0.03180
C694        C  0.49609404  0.89605247  0.21512813    -0.03180
C695        C  0.34342170  0.91015347  0.23210409    -0.03180
C696        C  0.34252203  0.55911528  0.24299974    -0.03180
O697        O  0.24347190  0.52005669  0.41453246    -0.80830
O698        O  0.28509270  0.60158316  0.06923549    -0.80860
O699        O  0.32099566  0.65264872  0.43347611    -0.80860
O700        O  0.24928199  0.96988409  0.03308967    -0.80810
O701        O  0.32571898  0.64187053  0.99795370    -0.80930
O702        O  0.23281842  0.96502666  0.47094502    -0.80850
O703        O  0.26126891  0.53508995  0.07803685    -0.80830
O704        O  0.30344049  0.57235467  0.43360903    -0.80870
C705        C  0.28221176  0.54679905  0.40809637     1.08860
C706        C  0.28377068  0.57152218  0.08740667     1.08740
C707        C  0.34223660  0.66542856  0.46502994     1.08880
C708        C  0.24439240  0.95166756  0.50099400     1.08760
O709        O  0.16024003  0.95723902  0.44766906    -0.80830
O710        O  0.26626486  0.65658072  0.02927595    -0.80910
O711        O  0.23777297  0.58478435  0.41245099    -0.80840
O712        O  0.17770564  0.51647984  0.06034451    -0.80820
O713        O  0.20490917  0.58028467  0.05190761    -0.80880
O714        O  0.18261351  0.53596427  0.44768377    -0.80840
O715        O  0.16361730  0.95311148  0.01473159    -0.80800
O716        O  0.24759321  0.63544278  0.46942391    -0.80870
Co717      Co  0.20847551  0.50392160  0.46510471     1.51530
Co718      Co  0.26032300  0.60433446  0.01946175     1.51690
Co719      Co  0.27651365  0.60022564  0.45790081     1.51570
Co720      Co  0.21661984  0.49905672  0.04284531     1.51470
O721        O  0.24781866  0.54858299  0.49765034    -1.42770
C722        C  0.14402475  0.93832785  0.48194094     1.08790
C723        C  0.25525678  0.66261391  0.49480352     1.08880
C724        C  0.19896046  0.55743927  0.41495608     1.08810
C725        C  0.19058648  0.54912696  0.07608150     1.08790
O726        O  0.01476209  0.85859819  0.40273285    -0.80830
O727        O  0.47517668  0.84194031  0.02554494    -0.80860
O728        O  0.41090243  0.79979639  0.46520343    -0.80860
O729        O  0.09882727  0.86872929  0.00706500    -0.80810
O730        O  0.39402275  0.77699160  0.02810665    -0.80930
O731        O  0.07589959  0.89236329  0.45877874    -0.80850
O732        O  0.02754801  0.83846749  0.05427092    -0.80830
O733        O  0.45767748  0.80158809  0.39302712    -0.80870
C734        C  0.98741621  0.83557638  0.37918274     1.08860
C735        C  0.50236596  0.85174209  0.05242718     1.08740
C736        C  0.38467236  0.79011039  0.49685924     1.08880
C737        C  0.10359633  0.89829112  0.48379909     1.08760
O738        O  0.10358869  0.83453350  0.44471555    -0.80830
O739        O  0.40938554  0.72292361  0.99322615    -0.80910
O740        O  0.47461978  0.74477864  0.42050843    -0.80840
O741        O  0.00578123  0.75718636  0.04401861    -0.80820
O742        O  0.45551069  0.76858101  0.06210734    -0.80880
O743        O  0.03471183  0.79836618  0.39574271    -0.80840
O744        O  0.07868102  0.78713707  0.99336503    -0.80800
O745        O  0.39365325  0.73042847  0.43151885    -0.80870
Co746      Co  0.05279767  0.84284279  0.42959680     1.51530
Co747      Co  0.44799805  0.78634419  0.00681119     1.51690
Co748      Co  0.44840879  0.77288727  0.44711237     1.51570
Co749      Co  0.04842337  0.81131369  0.02089045     1.51470
O750        O  0.00667317  0.80618884  0.47527483    -1.42770
C751        C  0.10928377  0.81068702  0.46888718     1.08790
C752        C  0.38362928  0.70758726  0.46350733     1.08880
C753        C  0.00412765  0.76324078  0.39293867     1.08810
C754        C  0.48035149  0.75605009  0.07101104     1.08790
O755        O  0.29312418  0.80282647  0.40608060    -0.80830
O756        O  0.28599133  0.86566700  0.04292222    -0.80860
O757        O  0.25981557  0.89990348  0.47084270    -0.80860
O758        O  0.31616557  0.77404347  0.02740783    -0.80810
O759        O  0.22325067  0.88395068  0.02990444    -0.80930
O760        O  0.33040354  0.80331551  0.46874700    -0.80850
O761        O  0.28299284  0.81081938  0.07052821    -0.80830
O762        O  0.30237559  0.85950661  0.42820606    -0.80870
C763        C  0.30696979  0.84028602  0.40017575     1.08860
C764        C  0.29336214  0.84713493  0.07188737     1.08740
C765        C  0.24343537  0.91035631  0.50064106     1.08880
C766        C  0.34281753  0.79071224  0.49784184     1.08760
O767        O  0.27328481  0.72432629  0.45241400    -0.80830
O768        O  0.16637653  0.80698716  0.00480499    -0.80910
O769        O  0.22145825  0.80007275  0.40304527    -0.80840
O770        O  0.19982985  0.75468131  0.05369301    -0.80820
O771        O  0.20694584  0.81043697  0.07387878    -0.80880
O772        O  0.21075278  0.74383174  0.43575911    -0.80840
O773        O  0.23307956  0.71223155  0.00792300    -0.80800
O774        O  0.18174140  0.83259170  0.44387379    -0.80870
Co775      Co  0.26769594  0.77238486  0.45837048     1.51530
Co776      Co  0.22899193  0.83745762  0.01937055     1.51690
Co777      Co  0.24283431  0.84425354  0.44177606     1.51570
Co778      Co  0.25676183  0.76684375  0.03495721     1.51470
O779        O  0.24860785  0.80512871  0.48872879    -1.42770
C780        C  0.25310992  0.70089159  0.48391959     1.08790
C781        C  0.15394319  0.81565814  0.47237894     1.08880
C782        C  0.20671299  0.76216875  0.40472840     1.08810
C783        C  0.19936445  0.77509174  0.08237982     1.08790
C784        C  0.33022237  0.54458199  0.16877774    -0.27010
C785        C  0.32659855  0.56536056  0.20170440    -0.15090
C786        C  0.32029786  0.59822103  0.19135179     0.35540
C787        C  0.30911821  0.60297971  0.15208627    -0.26460
C788        C  0.30797491  0.57774537  0.12260167    -0.15700
C789        C  0.32330351  0.55205867  0.12994720     0.36630
N790        N  0.33056967  0.03244994  0.09767737    -0.89950
H791        H  0.34190800  0.02398096  0.17130395     0.17740
H792        H  0.30040509  0.62552046  0.14505117     0.17730
N793        N  0.32683043  0.62750793  0.21953795    -0.88980
H794        H  0.31051385  0.00139599  0.10309440     0.35110
H795        H  0.36207006  0.03919445  0.09764723     0.40210
H796        H  0.35261527  0.65500669  0.20824989     0.39830
H797        H  0.30051244  0.63133862  0.22002848     0.34720
C798        C  0.34276263  0.54655151  0.31788016    -0.27010
C799        C  0.32036106  0.55207936  0.28532307    -0.15090
C800        C  0.28532275  0.55626505  0.29568832     0.35540
C801        C  0.27752669  0.55926238  0.33627146    -0.26460
C802        C  0.29898205  0.55194861  0.36724997    -0.15700
C803        C  0.33161639  0.54484299  0.35800360     0.36630
N804        N  0.35476073  0.53665331  0.38798349    -0.89950
H805        H  0.37123833  0.54541245  0.31243837     0.17740
H806        H  0.25369788  0.56665907  0.34373648     0.17730
N807        N  0.25573822  0.55555980  0.26768041    -0.88980
H808        H  0.34951017  0.50770018  0.38437673     0.35110
H809        H  0.34391308  0.53632713  0.41734615     0.40210
H810        H  0.25918444  0.54690475  0.23945714     0.39830
H811        H  0.25738849  0.58342367  0.26582035     0.34720
C812        C  0.31218773  0.90133496  0.11828240    -0.27010
C813        C  0.30527883  0.86334443  0.11227709    -0.15090
C814        C  0.30510643  0.83929304  0.14634944     0.35540
C815        C  0.30767341  0.85235949  0.18542419    -0.26460
C816        C  0.32004347  0.89240930  0.19185473    -0.15700
C817        C  0.32464059  0.91792825  0.15559037     0.36630
N818        N  0.34843375  0.96130063  0.15423256    -0.89950
H819        H  0.31298486  0.92007348  0.09240611     0.17740
H820        H  0.30513927  0.83202271  0.21008932     0.17730
N821        N  0.30478077  0.80235594  0.14166372    -0.88980
H822        H  0.34865287  0.97412922  0.12576259     0.35110
H823        H  0.38014691  0.97025778  0.15819056     0.40210
H824        H  0.28111415  0.78003121  0.16128228     0.39830
H825        H  0.33352150  0.80616671  0.15125982     0.34720
C826        C  0.32704250  0.85266451  0.28641495    -0.27010
C827        C  0.32189799  0.88608292  0.27493641    -0.15090
C828        C  0.30994620  0.90211169  0.30870938     0.35540
C829        C  0.30440110  0.88543902  0.34790641    -0.26460
C830        C  0.31582682  0.85737997  0.35809918    -0.15700
C831        C  0.32889243  0.84185415  0.32745305     0.36630
N832        N  0.34642100  0.81700968  0.33878822    -0.89950
H833        H  0.33744673  0.83983484  0.26407296     0.17740
H834        H  0.29330327  0.89699813  0.37144588     0.17730
N835        N  0.30609163  0.93723495  0.30647394    -0.88980
H836        H  0.37602781  0.83561714  0.35013698     0.35110
H837        H  0.34978048  0.80278955  0.31435436     0.40210
H838        H  0.32829404  0.95861691  0.32461655     0.39830
H839        H  0.27566179  0.92960354  0.31709754     0.34720
C840        C  0.30829804  0.95038487  0.22996670    -0.27010
C841        C  0.34690814  0.95053566  0.23367541    -0.15090
C842        C  0.38464073  0.48724841  0.23895106     0.35540
C843        C  0.38138958  0.51980980  0.24790895    -0.26460
C844        C  0.34375102  0.52029743  0.24276379    -0.15700
C845        C  0.30608698  0.48421770  0.23630032     0.36630
N846        N  0.26594533  0.48232652  0.23523382    -0.89950
H847        H  0.27895955  0.92270249  0.22575162     0.17740
H848        H  0.40973302  0.54536885  0.25747575     0.17730
N849        N  0.42646251  0.49363000  0.23201570    -0.88980
H850        H  0.24546520  0.96069788  0.25754910     0.35110
H851        H  0.25342238  0.47277200  0.20718061     0.40210
H852        H  0.44436585  0.00690727  0.25679138     0.39830
H853        H  0.94088897  0.51397526  0.20686197     0.34720
C854        C  0.46351702  0.84479410  0.11468019    -0.27010
C855        C  0.49936152  0.86939732  0.08937581    -0.15090
C856        C  0.03702382  0.89689452  0.10697053     0.35540
C857        C  0.03742737  0.90058228  0.14882652    -0.26460
C858        C  0.49985655  0.88028516  0.17370367    -0.15700
C859        C  0.46413151  0.84832335  0.15653744     0.36630
N860        N  0.42759675  0.82007268  0.18072215    -0.89950
H861        H  0.43576631  0.82027143  0.10245697     0.17740
H862        H  0.06736445  0.92047368  0.16130904     0.17730
N863        N  0.07564153  0.91925617  0.08258374    -0.88980
H864        H  0.42249255  0.79122481  0.17674535     0.35110
H865        H  0.40154178  0.82145946  0.17036733     0.40210
H866        H  0.09764289  0.91197341  0.09382908     0.39830
H867        H  0.08746195  0.94991055  0.08574018     0.34720
C868        C  0.02681602  0.86659347  0.26725656    -0.27010
C869        C  0.99039393  0.86393989  0.25011956    -0.15090
C870        C  0.45195256  0.84043492  0.27359211     0.35540
C871        C  0.45249499  0.83289628  0.31524541    -0.26460
C872        C  0.99032883  0.84558036  0.33457023    -0.15700
C873        C  0.02800736  0.86080561  0.30955609     0.36630
N874        N  0.06832147  0.87313497  0.32590872    -0.89950
H875        H  0.05651162  0.88111490  0.24940357     0.17740
H876        H  0.42279408  0.81692564  0.33277180     0.17730
N877        N  0.41206867  0.82548624  0.25585108    -0.88980
H878        H  0.06752804  0.84826434  0.34063587     0.35110
H879        H  0.07431988  0.89474469  0.34659150     0.40210
H880        H  0.39664077  0.83879679  0.26883112     0.39830
H881        H  0.39423807  0.79433383  0.26246475     0.34720
C882        C  0.44867321  0.91450641  0.25424388    -0.27010
C883        C  0.45977013  0.90555211  0.21666699    -0.15090
C884        C  0.43965457  0.91064714  0.18259737     0.35540
C885        C  0.40424115  0.91394753  0.18847740    -0.26460
C886        C  0.38758978  0.91399968  0.22709981    -0.15700
C887        C  0.41380235  0.91917688  0.25979892     0.36630
N888        N  0.40609937  0.93009870  0.29844696    -0.89950
H889        H  0.46481132  0.91496587  0.28103180     0.17740
H890        H  0.39042453  0.91635765  0.16110555     0.17730
N891        N  0.45477257  0.91427960  0.14156187    -0.88980
H892        H  0.40416569  0.90883067  0.32047902     0.35110
H893        H  0.43259484  0.95738089  0.30468050     0.40210
H894        H  0.96097332  0.94206187  0.12833670     0.39830
H895        H  0.43013828  0.89231651  0.12584659     0.34720
C896        C  0.20769511  0.58421160  0.18448707    -0.27010
C897        C  0.18182826  0.54824203  0.20975244    -0.15090
C898        C  0.17175004  0.51272376  0.18942678     0.35540
C899        C  0.17479536  0.51375931  0.14650762    -0.26460
C900        C  0.18974478  0.54977925  0.12187064    -0.15700
C901        C  0.20834485  0.58568184  0.14177916     0.36630
N902        N  0.22872365  0.62391823  0.11883887    -0.89950
H903        H  0.22680609  0.61257323  0.19695769     0.17740
H904        H  0.16398958  0.98563275  0.13248171     0.17730
N905        N  0.15513543  0.97467788  0.21175718    -0.88980
H906        H  0.24238618  0.64761766  0.13785080     0.35110
H907        H  0.20513313  0.62663510  0.10425525     0.40210
H908        H  0.17536258  0.96353051  0.20586232     0.39830
H909        H  0.12557720  0.95456990  0.20124630     0.34720
C910        C  0.15543787  0.57139674  0.31947908    -0.27010
C911        C  0.16264058  0.54719891  0.29216963    -0.15090
C912        C  0.16995208  0.51767347  0.31174049     0.35540
C913        C  0.17563200  0.51751745  0.35392634    -0.26460
C914        C  0.17630747  0.54740714  0.37730827    -0.15700
C915        C  0.16490010  0.57379675  0.35989926     0.36630
N916        N  0.16233745  0.60348214  0.38249095    -0.89950
H917        H  0.14062563  0.58844144  0.31044471     0.17740
H918        H  0.18268045  0.49561802  0.36765532     0.17730
N919        N  0.16855049  0.48596126  0.29015315    -0.88980
H920        H  0.18781038  0.63165492  0.37228181     0.35110
H921        H  0.16518456  0.59962324  0.41339454     0.40210
H922        H  0.14330335  0.45873340  0.30270009     0.39830
H923        H  0.19627592  0.48512239  0.29477702     0.34720
C924        C  0.04548840  0.94785397  0.26302069    -0.27010
C925        C  0.03463097  0.93806560  0.22287971    -0.15090
C926        C  0.05352000  0.47129667  0.19359996     0.35540
C927        C  0.09088583  0.50558990  0.20176677    -0.26460
C928        C  0.10643040  0.51153435  0.24083975    -0.15700
C929        C  0.07880456  0.98441779  0.27245709     0.36630
N930        N  0.08100208  0.99432118  0.31369954    -0.89950
H931        H  0.02712374  0.92793338  0.28860697     0.17740
H932        H  0.10725118  0.52893965  0.17764128     0.17730
N933        N  0.03517663  0.47148732  0.15606429    -0.88980
H934        H  0.05304531  0.99379516  0.32222884     0.35110
H935        H  0.08254372  0.47208443  0.33177144     0.40210
H936        H  0.02810854  0.49465445  0.15551707     0.39830
H937        H  0.05784835  0.47866240  0.13262265     0.34720
C938        C  0.20097659  0.71591833  0.17602630    -0.27010
C939        C  0.18860904  0.73268850  0.20724572    -0.15090
C940        C  0.19430707  0.77196108  0.19720947     0.35540
C941        C  0.20149369  0.78669356  0.15631757    -0.26460
C942        C  0.20147541  0.76316196  0.12513261    -0.15700
C943        C  0.20502591  0.72937762  0.13554887     0.36630
N944        N  0.21150222  0.70762074  0.10516931    -0.89950
H945        H  0.20213921  0.68866609  0.18069699     0.17740
H946        H  0.20245228  0.81485456  0.14879751     0.17730
N947        N  0.18625191  0.79477192  0.22554574    -0.88980
H948        H  0.18620103  0.67795238  0.10786051     0.35110
H949        H  0.23944779  0.70744126  0.11069308     0.40210
H950        H  0.17333920  0.77864807  0.25305696     0.39830
H951        H  0.16276755  0.79997477  0.21434144     0.34720
C952        C  0.20938857  0.74846855  0.29405406    -0.27010
C953        C  0.16913453  0.71610140  0.28734358    -0.15090
C954        C  0.14472597  0.69271647  0.32371991     0.35540
C955        C  0.15389534  0.70986576  0.36136157    -0.26460
C956        C  0.19355247  0.74270843  0.36612458    -0.15700
C957        C  0.22326150  0.75517225  0.33340770     0.36630
N958        N  0.26410135  0.76084253  0.34083690    -0.89950
H959        H  0.23274479  0.76308007  0.26919117     0.17740
H960        H  0.13277329  0.69443164  0.38768872     0.17730
N961        N  0.11811499  0.64995189  0.32507213    -0.88980
H962        H  0.27795602  0.75841196  0.31407094     0.35110
H963        H  0.26008479  0.73657450  0.35992720     0.40210
H964        H  0.08997149  0.64201088  0.34149384     0.39830
H965        H  0.13293344  0.63744201  0.34165052     0.34720
C966        C  0.11841325  0.62918441  0.22741344    -0.27010
C967        C  0.15436168  0.66267983  0.24109110    -0.15090
C968        C  0.18950346  0.65880613  0.25085473     0.35540
C969        C  0.18718006  0.62236531  0.24804345    -0.26460
C970        C  0.14957811  0.58727377  0.23885729    -0.15700
C971        C  0.11354140  0.59121945  0.23101514     0.36630
N972        N  0.07104988  0.55805010  0.23062764    -0.89950
H973        H  0.09186611  0.63098186  0.21619682     0.17740
H974        H  0.21430699  0.62040109  0.25770321     0.17730
N975        N  0.22874863  0.69235344  0.26139758    -0.88980
H976        H  0.05282958  0.56038812  0.25384719     0.35110
H977        H  0.05846390  0.55996721  0.20311724     0.40210
H978        H  0.25257301  0.69653425  0.24044709     0.39830
H979        H  0.23604734  0.68523608  0.28982574     0.34720
C980        C  0.47797760  0.70647239  0.12134665    -0.27010
C981        C  0.48227110  0.74377962  0.11334400    -0.15090
C982        C  0.99620607  0.77091942  0.14428888     0.35540
C983        C  0.99493825  0.75683766  0.18442338    -0.26460
C984        C  0.49330828  0.72005492  0.19289521    -0.15700
C985        C  0.49031894  0.69756625  0.15801268     0.36630
N986        N  0.50888026  0.67263880  0.15553395    -0.89950
H987        H  0.47282301  0.68738194  0.09661089     0.17740
H988        H  0.00226437  0.77765464  0.20773671     0.17730
N989        N  0.01996081  0.81322375  0.13427640    -0.88980
H990        H  0.53456860  0.68669056  0.13442917     0.35110
H991        H  0.48730269  0.64567936  0.14358160     0.40210
H992        H  0.04762433  0.81893906  0.11842829     0.39830
H993        H  0.03060274  0.82861575  0.16046100     0.34720
C994        C  0.46956001  0.73834415  0.28618517    -0.27010
C995        C  0.00549372  0.73893557  0.26917310    -0.15090
C996        C  0.04335784  0.76054973  0.28974013     0.35540
C997        C  0.04050730  0.76209258  0.33140567    -0.26460
C998        C  0.00156429  0.75010629  0.35177205    -0.15700
C999        C  0.46662799  0.74203853  0.32809415     0.36630
N1000       N  0.42775190  0.73568616  0.34642293    -0.89950
H1001       H  0.44144290  0.72816271  0.26904310     0.17740
H1002       H  0.06932827  0.77481426  0.34780331     0.17730
N1003       N  0.08416495  0.77999436  0.26853472    -0.88980
H1004       H  0.40341524  0.70677875  0.34139138     0.35110
H1005       H  0.41992313  0.75521876  0.33130876     0.40210
H1006       H  0.08544231  0.80230976  0.24828738     0.39830
H1007       H  0.10844965  0.79456554  0.28832811     0.34720
C1008       C  0.07201568  0.72495525  0.20532901    -0.27010
C1009       C  0.04111248  0.70614913  0.23715079    -0.15090
C1010       C  0.04682091  0.68261345  0.26780698     0.35540
C1011       C  0.07976509  0.67588524  0.26302275    -0.26460
C1012       C  0.11336444  0.69902033  0.23538982    -0.15700
C1013       C  0.10348393  0.71541586  0.20120845     0.36630
N1014       N  0.11816254  0.71387457  0.16140243    -0.89950
H1015       H  0.06960074  0.74362012  0.18133622     0.17740
H1016       H  0.07613688  0.64937311  0.27799712     0.17730
N1017       N  0.01884495  0.66438795  0.30304701    -0.88980
H1018       H  0.10782399  0.72703879  0.13953100     0.35110
H1019       H  0.10514368  0.68357286  0.15560850     0.40210
H1020       H  0.52569273  0.68707841  0.32248617     0.39830
H1021       H  0.02463717  0.64371083  0.31907568     0.34720
C1022       C  0.39230518  0.62559542  0.27197632    -0.26800
C1023       C  0.38569951  0.59715157  0.24361724    -0.15090
C1024       C  0.42020139  0.60456249  0.21759538     0.35540
C1025       C  0.45973140  0.63474142  0.22597938    -0.26460
C1026       C  0.46412030  0.66589215  0.24866223    -0.15700
C1027       C  0.43245529  0.65532344  0.27914736     0.36630
N1028       N  0.44295620  0.66033505  0.32071395    -0.89950
H1029       H  0.36745533  0.62263154  0.29247143     0.17740
H1030       H  0.98692932  0.63414068  0.21417731     0.17730
N1031       N  0.41600004  0.58047168  0.18457272    -0.88980
H1032       H  0.44417310  0.63495958  0.33147555     0.35110
H1033       H  0.41785077  0.65871699  0.33780396     0.40210
H1034       H  0.42138067  0.59797110  0.15769185     0.39830
H1035       H  0.93894015  0.57192306  0.18572439     0.34720
C1036       C  0.50107833  0.70877778  0.73700430    -0.03180
C1037       C  0.15701463  0.70328883  0.74275770    -0.03180
C1038       C  0.15078929  0.54777613  0.74594395    -0.03180
C1039       C  0.49609410  0.89605260  0.71512817    -0.03180
C1040       C  0.34342204  0.91015400  0.73210482    -0.03180
C1041       C  0.34252344  0.55911576  0.74299992    -0.03180
O1042       O  0.24347188  0.52005643  0.91453203    -0.80830
O1043       O  0.28509317  0.60158346  0.56923573    -0.80860
O1044       O  0.32099689  0.65264827  0.93347554    -0.80860
O1045       O  0.24928745  0.96988667  0.53308615    -0.80810
O1046       O  0.32571989  0.64186986  0.49795343    -0.80930
O1047       O  0.23281974  0.96502752  0.97094642    -0.80850
O1048       O  0.26126560  0.53508957  0.57803848    -0.80830
O1049       O  0.30344091  0.57235379  0.93360894    -0.80870
C1050       C  0.28221198  0.54679831  0.90809621     1.08860
C1051       C  0.28376893  0.57152181  0.58740782     1.08740
C1052       C  0.34223664  0.66542865  0.96502992     1.08880
C1053       C  0.24439028  0.95166666  0.00099670     1.08760
O1054       O  0.16024068  0.95723832  0.94766898    -0.80830
O1055       O  0.26626743  0.65658225  0.52927544    -0.80910
O1056       O  0.23777443  0.58478479  0.91245029    -0.80840
O1057       O  0.17770394  0.51648214  0.56034239    -0.80820
O1058       O  0.20491013  0.58028717  0.55190687    -0.80880
O1059       O  0.18261416  0.53596522  0.94768265    -0.80840
O1060       O  0.16362012  0.95311135  0.51473135    -0.80800
O1061       O  0.24759491  0.63544349  0.96942287    -0.80870
Co1062     Co  0.20847527  0.50392185  0.96510409     1.51530
Co1063     Co  0.26032414  0.60433528  0.51946170     1.51690
Co1064     Co  0.27651477  0.60022557  0.95790033     1.51570
Co1065     Co  0.21661710  0.49905675  0.54284609     1.51470
O1066       O  0.24781883  0.54858306  0.99764966    -1.42770
C1067       C  0.14402369  0.93832755  0.98194062     1.08790
C1068       C  0.25525631  0.66261346  0.99480332     1.08880
C1069       C  0.19896172  0.55744021  0.91495504     1.08810
C1070       C  0.19058606  0.54912904  0.57608020     1.08790
O1071       O  0.01476125  0.85859693  0.90273173    -0.80830
O1072       O  0.47517675  0.84193998  0.52554494    -0.80860
O1073       O  0.41090198  0.79979636  0.96520349    -0.80860
O1074       O  0.09882835  0.86872965  0.50706571    -0.80810
O1075       O  0.39402291  0.77699131  0.52810649    -0.80930
O1076       O  0.07589912  0.89236275  0.95877720    -0.80850
O1077       O  0.02754871  0.83846783  0.55427143    -0.80830
O1078       O  0.45767728  0.80158830  0.89302722    -0.80870
C1079       C  0.98741511  0.83557491  0.87918195     1.08860
C1080       C  0.50236599  0.85174176  0.55242722     1.08740
C1081       C  0.38467196  0.79011038  0.99685935     1.08880
C1082       C  0.10359543  0.89829069  0.98379811     1.08760
O1083       O  0.10358780  0.83453258  0.94471524    -0.80830
O1084       O  0.40938575  0.72292333  0.49322597    -0.80910
O1085       O  0.47461973  0.74477896  0.92050845    -0.80840
O1086       O  0.00578195  0.75718673  0.54401889    -0.80820
O1087       O  0.45551076  0.76858066  0.56210730    -0.80880
O1088       O  0.03471057  0.79836446  0.89574260    -0.80840
O1089       O  0.07868203  0.78713771  0.49336513    -0.80800
O1090       O  0.39365319  0.73042858  0.93151892    -0.80870
Co1091     Co  0.05279677  0.84284169  0.92959606     1.51530
Co1092     Co  0.44799821  0.78634387  0.50681111     1.51690
Co1093     Co  0.44840862  0.77288747  0.94711244     1.51570
Co1094     Co  0.04842422  0.81131410  0.52089086     1.51470
O1095       O  0.00667235  0.80618838  0.97527448    -1.42770
C1096       C  0.10928284  0.81068630  0.96888719     1.08790
C1097       C  0.38362918  0.70758744  0.96350745     1.08880
C1098       C  0.00412627  0.76323901  0.89293905     1.08810
C1099       C  0.48035158  0.75604977  0.57101104     1.08790
O1100       O  0.29312395  0.80282711  0.90608118    -0.80830
O1101       O  0.28599195  0.86566749  0.54292249    -0.80860
O1102       O  0.25981388  0.89990304  0.97084446    -0.80860
O1103       O  0.31616618  0.77404405  0.52740774    -0.80810
O1104       O  0.22325195  0.88395172  0.52990243    -0.80930
O1105       O  0.33040281  0.80331529  0.96874733    -0.80850
O1106       O  0.28299322  0.81081974  0.57052841    -0.80830
O1107       O  0.30237504  0.85950699  0.92820730    -0.80870
C1108       C  0.30696971  0.84028676  0.90017687     1.08860
C1109       C  0.29336243  0.84713525  0.57188778     1.08740
C1110       C  0.24343378  0.91035557  0.00064326     1.08880
C1111       C  0.34281692  0.79071192  0.99784200     1.08760
O1112       O  0.27328414  0.72432605  0.95241403    -0.80830
O1113       O  0.16637757  0.80698754  0.50480430    -0.80910
O1114       O  0.22145815  0.80007327  0.90304534    -0.80840
O1115       O  0.19983035  0.75468216  0.55369237    -0.80820
O1116       O  0.20694623  0.81043778  0.57387821    -0.80880
O1117       O  0.21075228  0.74383182  0.93575851    -0.80840
O1118       O  0.23308014  0.71223212  0.50792283    -0.80800
O1119       O  0.18174051  0.83259103  0.94387433    -0.80870
Co1120     Co  0.26769519  0.77238466  0.95837054     1.51530
Co1121     Co  0.22899288  0.83745817  0.51937002     1.51690
Co1122     Co  0.24283353  0.84425344  0.94177698     1.51570
Co1123     Co  0.25676242  0.76684435  0.53495703     1.51470
O1124       O  0.24860657  0.80512791  0.98872925    -1.42770
C1125       C  0.25310936  0.70089119  0.98391958     1.08790
C1126       C  0.15394224  0.81565755  0.97237941     1.08880
C1127       C  0.20671275  0.76216923  0.90472796     1.08810
C1128       C  0.19936469  0.77509248  0.58237921     1.08790
C1129       C  0.33022322  0.54458258  0.66877788    -0.27010
C1130       C  0.32660027  0.56536154  0.70170458    -0.15090
C1131       C  0.32029972  0.59822210  0.69135207     0.35540
C1132       C  0.30911859  0.60298003  0.65208697    -0.26460
C1133       C  0.30797305  0.57774438  0.62260279    -0.15700
C1134       C  0.32330138  0.55205737  0.62994787     0.36630
N1135       N  0.33057595  0.03245403  0.59767646    -0.89950
H1136       H  0.34190551  0.02397941  0.67130443     0.17740
H1137       H  0.30040609  0.62552122  0.64505192     0.17730
N1138       N  0.32683393  0.62750979  0.71953785    -0.88980
H1139       H  0.31051961  0.00139989  0.60309088     0.35110
H1140       H  0.36207617  0.03919828  0.59764935     0.40210
H1141       H  0.35261874  0.65500815  0.70824889     0.39830
H1142       H  0.30051629  0.63134100  0.72002921     0.34720
C1143       C  0.34276301  0.54655061  0.81788024    -0.27010
C1144       C  0.32036211  0.55207944  0.78532309    -0.15090
C1145       C  0.28532414  0.55626567  0.79568823     0.35540
C1146       C  0.27752783  0.55926261  0.83627138    -0.26460
C1147       C  0.29898241  0.55194779  0.86724992    -0.15700
C1148       C  0.33161629  0.54484150  0.85800364     0.36630
N1149       N  0.35475974  0.53665065  0.88798360    -0.89950
H1150       H  0.37123849  0.54541113  0.81243855     0.17740
H1151       H  0.25369945  0.56665987  0.84373634     0.17730
N1152       N  0.25574021  0.55556143  0.76768016    -0.88980
H1153       H  0.34950869  0.50769743  0.88437628     0.35110
H1154       H  0.34391169  0.53632403  0.91734622     0.40210
H1155       H  0.25918610  0.54690613  0.73945693     0.39830
H1156       H  0.25739135  0.58342569  0.76582013     0.34720
C1157       C  0.31218752  0.90133497  0.61828317    -0.27010
C1158       C  0.30527875  0.86334451  0.61227774    -0.15090
C1159       C  0.30510638  0.83929311  0.64635012     0.35540
C1160       C  0.30767379  0.85235969  0.68542494    -0.26460
C1161       C  0.32004364  0.89240946  0.69185553    -0.15700
C1162       C  0.32464044  0.91792828  0.65559114     0.36630
N1163       N  0.34843343  0.96130066  0.65423327    -0.89950
H1164       H  0.31298455  0.92007348  0.59240692     0.17740
H1165       H  0.30514005  0.83202305  0.71009006     0.17730
N1166       N  0.30478034  0.80235585  0.64166433    -0.88980
H1167       H  0.34865250  0.97412917  0.62576329     0.35110
H1168       H  0.38014663  0.97025798  0.65819125     0.40210
H1169       H  0.28111374  0.78003127  0.66128302     0.39830
H1170       H  0.33352105  0.80616641  0.65126023     0.34720
C1171       C  0.32704329  0.85266562  0.78641628    -0.27010
C1172       C  0.32189907  0.88608415  0.77493761    -0.15090
C1173       C  0.30994834  0.90211372  0.80871069     0.35540
C1174       C  0.30440249  0.88544072  0.84790766    -0.26460
C1175       C  0.31582768  0.85738130  0.85810050    -0.15700
C1176       C  0.32889352  0.84185559  0.82745445     0.36630
N1177       N  0.34642177  0.81701085  0.83878976    -0.89950
H1178       H  0.33744697  0.83983554  0.76407426     0.17740
H1179       H  0.29330501  0.89700014  0.87144710     0.17730
N1180       N  0.30609641  0.93723847  0.80647555    -0.88980
H1181       H  0.37602835  0.83561806  0.85013910     0.35110
H1182       H  0.34978177  0.80279108  0.81435585     0.40210
H1183       H  0.32829959  0.95861958  0.82461830     0.39830
H1184       H  0.27566707  0.92960867  0.81709917     0.34720
C1185       C  0.30829701  0.95038422  0.72996775    -0.27010
C1186       C  0.34690766  0.95053582  0.73367585    -0.15090
C1187       C  0.38464039  0.48724760  0.73895071     0.35540
C1188       C  0.38139001  0.51980939  0.74790862    -0.26460
C1189       C  0.34375181  0.52029765  0.74276358    -0.15700
C1190       C  0.30608744  0.48421830  0.73629987     0.36630
N1191       N  0.26594611  0.48232778  0.73523330    -0.89950
H1192       H  0.27895873  0.92270150  0.72575307     0.17740
H1193       H  0.40973373  0.54536822  0.75747531     0.17730
N1194       N  0.42646190  0.49362871  0.73201460    -0.88980
H1195       H  0.24546366  0.96069660  0.75755014     0.35110
H1196       H  0.25342321  0.47277359  0.70718000     0.40210
H1197       H  0.44436482  0.00690825  0.75679265     0.39830
H1198       H  0.94088927  0.51397663  0.70686259     0.34720
C1199       C  0.46351700  0.84479403  0.61468021    -0.27010
C1200       C  0.49936154  0.86939710  0.58937582    -0.15090
C1201       C  0.03702369  0.89689487  0.60697096     0.35540
C1202       C  0.03742660  0.90058257  0.64882692    -0.26460
C1203       C  0.49985653  0.88028527  0.67370366    -0.15700
C1204       C  0.46413146  0.84832344  0.65653746     0.36630
N1205       N  0.42759667  0.82007286  0.68072220    -0.89950
H1206       H  0.43576630  0.82027132  0.60245704     0.17740
H1207       H  0.06736338  0.92047423  0.66130973     0.17730
N1208       N  0.07564165  0.91925687  0.58258459    -0.88980
H1209       H  0.42249244  0.79122496  0.67674553     0.35110
H1210       H  0.40154172  0.82145964  0.67036729     0.40210
H1211       H  0.09764307  0.91197436  0.59383027     0.39830
H1212       H  0.08746169  0.94991118  0.58574109     0.34720
C1213       C  0.02681415  0.86659180  0.76725563    -0.27010
C1214       C  0.99039208  0.86393862  0.75011910    -0.15090
C1215       C  0.45195244  0.84043510  0.77359215     0.35540
C1216       C  0.45249484  0.83289648  0.81524546    -0.26460
C1217       C  0.99032732  0.84557855  0.83456943    -0.15700
C1218       C  0.02800565  0.86080347  0.80955504     0.36630
N1219       N  0.06831972  0.87313193  0.82590732    -0.89950
H1220       H  0.05650966  0.88111324  0.74940248     0.17740
H1221       H  0.42279392  0.81692592  0.83277185     0.17730
N1222       N  0.41206856  0.82548653  0.75585111    -0.88980
H1223       H  0.06752579  0.84826085  0.84063401     0.35110
H1224       H  0.07431875  0.89474153  0.84659042     0.40210
H1225       H  0.39664075  0.83879720  0.76883109     0.39830
H1226       H  0.39423784  0.79433414  0.76246483     0.34720
C1227       C  0.44867367  0.91450691  0.75424405    -0.27010
C1228       C  0.45977032  0.90555243  0.71666714    -0.15090
C1229       C  0.43965468  0.91064751  0.68259762     0.35540
C1230       C  0.40424149  0.91394828  0.68847780    -0.26460
C1231       C  0.38759033  0.91400061  0.72710028    -0.15700
C1232       C  0.41380307  0.91917777  0.75979924     0.36630
N1233       N  0.40610054  0.93009985  0.79844730    -0.89950
H1234       H  0.46481183  0.91496628  0.78103191     0.17740
H1235       H  0.39042478  0.91635840  0.66110601     0.17730
N1236       N  0.45477237  0.91427959  0.64156208    -0.88980
H1237       H  0.40416677  0.90883180  0.82047938     0.35110
H1238       H  0.43259625  0.95738193  0.80468068     0.40210
H1239       H  0.96097160  0.94206081  0.62833665     0.39830
H1240       H  0.43013788  0.89231645  0.62584701     0.34720
C1241       C  0.20769825  0.58421282  0.68448610    -0.27010
C1242       C  0.18183118  0.54824317  0.70975117    -0.15090
C1243       C  0.17175281  0.51272508  0.68942512     0.35540
C1244       C  0.17479713  0.51376089  0.64650589    -0.26460
C1245       C  0.18974606  0.54978100  0.62186938    -0.15700
C1246       C  0.20834699  0.58568346  0.64177823     0.36630
N1247       N  0.22872566  0.62392006  0.61883832    -0.89950
H1248       H  0.22680992  0.61257414  0.69695710     0.17740
H1249       H  0.16398863  0.98563112  0.63248419     0.17730
N1250       N  0.15513185  0.97467678  0.71175941    -0.88980
H1251       H  0.24238869  0.64761926  0.63785047     0.35110
H1252       H  0.20513498  0.62663726  0.60425543     0.40210
H1253       H  0.17535905  0.96352925  0.70586558     0.39830
H1254       H  0.12557392  0.95456884  0.70124797     0.34720
C1255       C  0.15544085  0.57139867  0.81947718    -0.27010
C1256       C  0.16264310  0.54720036  0.79216801    -0.15090
C1257       C  0.16995399  0.51767466  0.81173918     0.35540
C1258       C  0.17563338  0.51751853  0.85392515    -0.26460
C1259       C  0.17630925  0.54740854  0.87730687    -0.15700
C1260       C  0.16490299  0.57379882  0.85989736     0.36630
N1261       N  0.16234116  0.60348492  0.88248854    -0.89950
H1262       H  0.14062896  0.58844368  0.81044266     0.17740
H1263       H  0.18268113  0.49561872  0.86765440     0.17730
N1264       N  0.16855226  0.48596231  0.79015196    -0.88980
H1265       H  0.18781370  0.63165752  0.87227829     0.35110
H1266       H  0.16518933  0.59962703  0.91339206     0.40210
H1267       H  0.14330490  0.45873453  0.80269879     0.39830
H1268       H  0.19627754  0.48512324  0.79477608     0.34720
C1269       C  0.04548609  0.94785228  0.76302164    -0.27010
C1270       C  0.03462881  0.93806466  0.72288048    -0.15090
C1271       C  0.05352228  0.47129709  0.69359887     0.35540
C1272       C  0.09088851  0.50559014  0.70176522    -0.26460
C1273       C  0.10643307  0.51153518  0.74083822    -0.15700
C1274       C  0.07880193  0.98441605  0.77245860     0.36630
N1275       N  0.08099948  0.99431844  0.81370140    -0.89950
H1276       H  0.02712148  0.92793114  0.78860763     0.17740
H1277       H  0.10725389  0.52893958  0.67763947     0.17730
N1278       N  0.03517871  0.47148766  0.65606329    -0.88980
H1279       H  0.05304253  0.99379182  0.82223128     0.35110
H1280       H  0.08254570  0.47208692  0.83177053     0.40210
H1281       H  0.02811110  0.49465511  0.65551590     0.39830
H1282       H  0.05785017  0.47866226  0.63262154     0.34720
C1283       C  0.20097640  0.71591877  0.67602558    -0.27010
C1284       C  0.18860846  0.73268858  0.70724507    -0.15090
C1285       C  0.19430602  0.77196101  0.69720891     0.35540
C1286       C  0.20149292  0.78669374  0.65631707    -0.26460
C1287       C  0.20147514  0.76316244  0.62513203    -0.15700
C1288       C  0.20502579  0.72937818  0.63554820     0.36630
N1289       N  0.21150235  0.70762148  0.60516860    -0.89950
H1290       H  0.20213936  0.68866669  0.68069613     0.17740
H1291       H  0.20245130  0.81485465  0.64879706     0.17730
N1292       N  0.18625013  0.79477140  0.72554517    -0.88980
H1293       H  0.18620120  0.67795311  0.60785962     0.35110
H1294       H  0.23944792  0.70744205  0.61069247     0.40210
H1295       H  0.17333690  0.77864718  0.75305613     0.39830
H1296       H  0.16276587  0.79997422  0.71434052     0.34720
C1297       C  0.20938774  0.74846913  0.79405323    -0.27010
C1298       C  0.16913399  0.71610143  0.78734297    -0.15090
C1299       C  0.14472569  0.69271661  0.82371946     0.35540
C1300       C  0.15389517  0.70986608  0.86136108    -0.26460
C1301       C  0.19355206  0.74270921  0.86612391    -0.15700
C1302       C  0.22326086  0.75517343  0.83340677     0.36630
N1303       N  0.26410138  0.76084537  0.84083564    -0.89950
H1304       H  0.23274378  0.76308084  0.76919024     0.17740
H1305       H  0.13277335  0.69443183  0.88768834     0.17730
N1306       N  0.11811425  0.64995211  0.82507185    -0.88980
H1307       H  0.27795656  0.75841585  0.81406947     0.35110
H1308       H  0.26008590  0.73657751  0.85992554     0.40210
H1309       H  0.08997064  0.64201164  0.84149305     0.39830
H1310       H  0.13293200  0.63744182  0.84165076     0.34720
C1311       C  0.11841466  0.62918465  0.72741152    -0.27010
C1312       C  0.15436227  0.66268000  0.74109033    -0.15090
C1313       C  0.18950445  0.65880692  0.75085379     0.35540
C1314       C  0.18718205  0.62236659  0.74804136    -0.26460
C1315       C  0.14958035  0.58727472  0.73885518    -0.15700
C1316       C  0.11354342  0.59121995  0.73101268     0.36630
N1317       N  0.07105216  0.55805037  0.73062411    -0.89950
H1318       H  0.09186757  0.63098185  0.71619436     0.17740
H1319       H  0.21430915  0.62040278  0.75770132     0.17730
N1320       N  0.22874901  0.69235440  0.76139756    -0.88980
H1321       H  0.05283113  0.56038764  0.75384345     0.35110
H1322       H  0.05846674  0.55996785  0.70311348     0.40210
H1323       H  0.25257390  0.69653628  0.74044713     0.39830
H1324       H  0.23604760  0.68523661  0.78982559     0.34720
C1325       C  0.47797829  0.70647244  0.62134686    -0.27010
C1326       C  0.48227131  0.74377947  0.61334406    -0.15090
C1327       C  0.99620545  0.77091866  0.64428953     0.35540
C1328       C  0.99493742  0.75683639  0.68442390    -0.26460
C1329       C  0.49330889  0.72005530  0.69289538    -0.15700
C1330       C  0.49031985  0.69756663  0.65801294     0.36630
N1331       N  0.50888167  0.67263959  0.65553434    -0.89950
H1332       H  0.47282394  0.68738197  0.59661116     0.17740
H1333       H  0.00226321  0.77765296  0.70773758     0.17730
N1334       N  0.01995933  0.81322314  0.63427774    -0.88980
H1335       H  0.53456997  0.68669151  0.63442952     0.35110
H1336       H  0.48730433  0.64567999  0.64358211     0.40210
H1337       H  0.04762331  0.81893938  0.61842987     0.39830
H1338       H  0.03060047  0.82861480  0.66046264     0.34720
C1339       C  0.46956016  0.73834448  0.78618515    -0.27010
C1340       C  0.00549311  0.73893337  0.76917366    -0.15090
C1341       C  0.04335696  0.76054618  0.78974151     0.35540
C1342       C  0.04050584  0.76208867  0.83140708    -0.26460
C1343       C  0.00156288  0.75010362  0.85177283    -0.15700
C1344       C  0.46662807  0.74203895  0.82809411     0.36630
N1345       N  0.42775186  0.73568631  0.84642285    -0.89950
H1346       H  0.44144299  0.72816263  0.76904310     0.17740
H1347       H  0.06932648  0.77480960  0.84780520     0.17730
N1348       N  0.08416443  0.77999027  0.76853682    -0.88980
H1349       H  0.40341535  0.70677885  0.84139124     0.35110
H1350       H  0.41992296  0.75521884  0.83130870     0.40210
H1351       H  0.08544286  0.80230636  0.74828974     0.39830
H1352       H  0.10844885  0.79456053  0.78833070     0.34720
C1353       C  0.07201455  0.72495371  0.70532886    -0.27010
C1354       C  0.04111104  0.70614664  0.73715029    -0.15090
C1355       C  0.04681920  0.68261009  0.76780573     0.35540
C1356       C  0.07976410  0.67588283  0.76302147    -0.26460
C1357       C  0.11336374  0.69901917  0.73538915    -0.15700
C1358       C  0.10348311  0.71541484  0.70120802     0.36630
N1359       N  0.11816201  0.71387426  0.66140187    -0.89950
H1360       H  0.06959978  0.74361909  0.68133653     0.17740
H1361       H  0.07613633  0.64937053  0.77799515     0.17730
N1362       N  0.01884266  0.66438327  0.80304523    -0.88980
H1363       H  0.10782318  0.72703842  0.63953065     0.35110
H1364       H  0.10514361  0.68357269  0.65560756     0.40210
H1365       H  0.52569507  0.68708051  0.82248694     0.39830
H1366       H  0.02463514  0.64370611  0.81907343     0.34720
C1367       C  0.39230677  0.62559522  0.77197759    -0.26800
C1368       C  0.38570104  0.59715175  0.74361803    -0.15090
C1369       C  0.42020290  0.60456287  0.71759605     0.35540
C1370       C  0.45973288  0.63474203  0.72597988    -0.26460
C1371       C  0.46412158  0.66589271  0.74866270    -0.15700
C1372       C  0.43245679  0.65532367  0.77914818     0.36630
N1373       N  0.44295806  0.66033596  0.82071464    -0.89950
H1374       H  0.36745704  0.62263109  0.79247303     0.17740
H1375       H  0.98692689  0.63413854  0.71417668     0.17730
N1376       N  0.41600147  0.58047226  0.68457319    -0.88980
H1377       H  0.44417503  0.63496063  0.83147664     0.35110
H1378       H  0.41785275  0.65871814  0.83780465     0.40210
H1379       H  0.42138210  0.59797183  0.65769242     0.39830
H1380       H  0.93893732  0.57192161  0.68572346     0.34720
C1381       C  0.00107802  0.20877731  0.23700449    -0.03180
C1382       C  0.65701491  0.20328844  0.24275854    -0.03180
C1383       C  0.65078880  0.04777537  0.24594457    -0.03180
C1384       C  0.99609286  0.39605190  0.21512865    -0.03180
C1385       C  0.84342065  0.41015325  0.23210491    -0.03180
C1386       C  0.84252287  0.05911544  0.24300066    -0.03180
O1387       O  0.74347244  0.02005662  0.41453283    -0.80830
O1388       O  0.78509341  0.10158375  0.06923610    -0.80860
O1389       O  0.82099572  0.15264861  0.43347645    -0.80860
O1390       O  0.74928041  0.46988360  0.03309116    -0.80810
O1391       O  0.82572007  0.14187028  0.99795382    -0.80930
O1392       O  0.73281915  0.46502703  0.47094595    -0.80850
O1393       O  0.76126555  0.03508982  0.07803878    -0.80830
O1394       O  0.80344081  0.07235466  0.43360977    -0.80870
C1395       C  0.78221231  0.04679906  0.40809701     1.08860
C1396       C  0.78376897  0.07152200  0.08740821     1.08740
C1397       C  0.84223649  0.16542852  0.46503033     1.08880
C1398       C  0.74439161  0.45166719  0.50099552     1.08760
O1399       O  0.66024068  0.45723879  0.44766906    -0.80830
O1400       O  0.76626750  0.15658257  0.02927568    -0.80910
O1401       O  0.73777355  0.08478437  0.41245101    -0.80840
O1402       O  0.67770398  0.01648240  0.06034254    -0.80820
O1403       O  0.70491034  0.08028748  0.05190743    -0.80880
O1404       O  0.68261373  0.03596415  0.44768322    -0.80840
O1405       O  0.66361657  0.45311177  0.01473177    -0.80800
O1406       O  0.74759321  0.13544272  0.46942407    -0.80870
Co1407     Co  0.70847561  0.00392153  0.46510477     1.51530
Co1408     Co  0.76032428  0.10433560  0.01946207     1.51690
Co1409     Co  0.77651376  0.10022559  0.45790118     1.51570
Co1410     Co  0.71661718  0.99905705  0.04284630     1.51470
O1411       O  0.74781854  0.04858291  0.49765059    -1.42770
C1412       C  0.64402454  0.43832784  0.48194085     1.08790
C1413       C  0.75525655  0.16261376  0.49480374     1.08880
C1414       C  0.69896108  0.05743922  0.41495563     1.08810
C1415       C  0.69058610  0.04912919  0.07608058     1.08790
O1416       O  0.51476204  0.35859788  0.40273222    -0.80830
O1417       O  0.97517703  0.34194032  0.02554536    -0.80860
O1418       O  0.91090206  0.29979630  0.46520375    -0.80860
O1419       O  0.59882723  0.36872932  0.00706477    -0.80810
O1420       O  0.89402302  0.27699161  0.02810709    -0.80930
O1421       O  0.57589959  0.39236322  0.45877809    -0.80850
O1422       O  0.52754798  0.33846739  0.05427065    -0.80830
O1423       O  0.95767703  0.30158791  0.39302745    -0.80870
C1424       C  0.48741609  0.33557601  0.37918220     1.08860
C1425       C  0.00236623  0.35174206  0.05242768     1.08740
C1426       C  0.88467203  0.29011032  0.49685960     1.08880
C1427       C  0.60359613  0.39829106  0.48379869     1.08760
O1428       O  0.60358848  0.33453324  0.44471546    -0.80830
O1429       O  0.90938597  0.22292374  0.99322637    -0.80910
O1430       O  0.97461949  0.24477860  0.42050876    -0.80840
O1431       O  0.50578133  0.25718631  0.04401842    -0.80820
O1432       O  0.95551101  0.26858099  0.06210768    -0.80880
O1433       O  0.53471164  0.29836573  0.39574249    -0.80840
O1434       O  0.57868113  0.28713705  0.99336495    -0.80800
O1435       O  0.89365298  0.23042841  0.43151920    -0.80870
Co1436     Co  0.55279752  0.34284252  0.42959642     1.51530
Co1437     Co  0.94799839  0.28634424  0.00681157     1.51690
Co1438     Co  0.94840848  0.27288723  0.44711270     1.51570
Co1439     Co  0.54842342  0.31131365  0.02089023     1.51470
O1440       O  0.50667294  0.30618875  0.47527451    -1.42770
C1441       C  0.60928345  0.31068679  0.46888724     1.08790
C1442       C  0.88362909  0.20758726  0.46350770     1.08880
C1443       C  0.50412742  0.26324033  0.39293854     1.08810
C1444       C  0.98035184  0.25605010  0.07101139     1.08790
O1445       O  0.79312407  0.30282677  0.40608125    -0.80830
O1446       O  0.78599119  0.36566710  0.04292300    -0.80860
O1447       O  0.75981484  0.39990323  0.47084383    -0.80860
O1448       O  0.81616581  0.27404374  0.02740840    -0.80810
O1449       O  0.72325043  0.38395066  0.02990540    -0.80930
O1450       O  0.83040316  0.30331546  0.46874755    -0.80850
O1451       O  0.78299285  0.31081950  0.07052890    -0.80830
O1452       O  0.80237539  0.35950677  0.42820703    -0.80870
C1453       C  0.80696976  0.34028637  0.40017664     1.08860
C1454       C  0.79336194  0.34713499  0.07188816     1.08740
C1455       C  0.74343476  0.41035598  0.50064240     1.08880
C1456       C  0.84281716  0.29071207  0.49784228     1.08760
O1457       O  0.77328455  0.22432624  0.45241433    -0.80830
O1458       O  0.66637659  0.30698730  0.00480535    -0.80910
O1459       O  0.72145821  0.30007287  0.40304564    -0.80840
O1460       O  0.69982995  0.25468147  0.05369327    -0.80820
O1461       O  0.70694566  0.31043693  0.07387929    -0.80880
O1462       O  0.71075252  0.24383171  0.43575931    -0.80840
O1463       O  0.73307981  0.21223205  0.00792317    -0.80800
O1464       O  0.68174109  0.33259141  0.44387423    -0.80870
Co1465     Co  0.76769559  0.27238478  0.45837091     1.51530
Co1466     Co  0.72899191  0.33745779  0.01937119     1.51690
Co1467     Co  0.74283399  0.34425346  0.44177680     1.51570
Co1468     Co  0.75676202  0.26684404  0.03495767     1.51470
O1469       O  0.74860727  0.30512836  0.48872940    -1.42770
C1470       C  0.75310962  0.20089143  0.48391985     1.08790
C1471       C  0.65394284  0.31565795  0.47237933     1.08880
C1472       C  0.70671284  0.26216882  0.40472863     1.08810
C1473       C  0.69936436  0.27509171  0.08238018     1.08790
C1474       C  0.83022198  0.04458178  0.16877874    -0.27010
C1475       C  0.82659940  0.06536101  0.20170538    -0.15090
C1476       C  0.82029914  0.09822173  0.19135278     0.35540
C1477       C  0.80911833  0.10297989  0.15208758    -0.26460
C1478       C  0.80797282  0.07774428  0.12260337    -0.15700
C1479       C  0.82330065  0.05205689  0.12994864     0.36630
N1480       N  0.83056729  0.53244860  0.09767843    -0.89950
H1481       H  0.84190803  0.52398137  0.17130464     0.17740
H1482       H  0.80040615  0.12552128  0.14505246     0.17730
N1483       N  0.82683354  0.12750951  0.21953851    -0.88980
H1484       H  0.81051146  0.50139474  0.10309625     0.35110
H1485       H  0.86206767  0.53919303  0.09764750     0.40210
H1486       H  0.85261854  0.15500776  0.20824961     0.39830
H1487       H  0.80051608  0.13134101  0.22002972     0.34720
C1488       C  0.84276261  0.04655039  0.31788101    -0.27010
C1489       C  0.82036167  0.05207922  0.28532389    -0.15090
C1490       C  0.78532402  0.05626592  0.29568908     0.35540
C1491       C  0.77752809  0.05926339  0.33627220    -0.26460
C1492       C  0.79898285  0.05194879  0.36725073    -0.15700
C1493       C  0.83161642  0.04484206  0.35800443     0.36630
N1494       N  0.85476006  0.03665150  0.38798439    -0.89950
H1495       H  0.87123785  0.04541051  0.31243929     0.17740
H1496       H  0.75369972  0.06666068  0.34373716     0.17730
N1497       N  0.75573995  0.05556152  0.26768110    -0.88980
H1498       H  0.84950851  0.00769801  0.38437773     0.35110
H1499       H  0.84391266  0.03632578  0.41734703     0.40210
H1500       H  0.75918548  0.04690573  0.23945801     0.39830
H1501       H  0.75739125  0.08342584  0.26582074     0.34720
C1502       C  0.81218677  0.40133477  0.11828327    -0.27010
C1503       C  0.80527819  0.36334435  0.11227797    -0.15090
C1504       C  0.80510567  0.33929295  0.14635036     0.35540
C1505       C  0.80767226  0.35235928  0.18542512    -0.26460
C1506       C  0.82004229  0.39240911  0.19185562    -0.15700
C1507       C  0.82463950  0.41792806  0.15559124     0.36630
N1508       N  0.84843284  0.46130043  0.15423337    -0.89950
H1509       H  0.81298395  0.42007329  0.09240696     0.17740
H1510       H  0.80513811  0.33202253  0.21009030     0.17730
N1511       N  0.80478044  0.30235604  0.14166467    -0.88980
H1512       H  0.84865199  0.47412903  0.12576339     0.35110
H1513       H  0.88014597  0.47025743  0.15819132     0.40210
H1514       H  0.78111382  0.28003117  0.16128311     0.39830
H1515       H  0.83352120  0.30616705  0.15126095     0.34720
C1516       C  0.82704194  0.35266455  0.28641589    -0.27010
C1517       C  0.82189694  0.38608265  0.27493723    -0.15090
C1518       C  0.80994484  0.40211124  0.30871013     0.35540
C1519       C  0.80440078  0.38543926  0.34790735    -0.26460
C1520       C  0.81582691  0.35738050  0.35810014    -0.15700
C1521       C  0.82889242  0.34185462  0.32745401     0.36630
N1522       N  0.84642124  0.31701037  0.33878917    -0.89950
H1523       H  0.83744608  0.33983481  0.26407388     0.17740
H1524       H  0.79330284  0.39699826  0.37144682     0.17730
N1525       N  0.80608817  0.43723333  0.30647426    -0.88980
H1526       H  0.87602822  0.33561805  0.35013753     0.35110
H1527       H  0.84978047  0.30279000  0.31435541     0.40210
H1528       H  0.82829022  0.45861619  0.32461642     0.39830
H1529       H  0.77565806  0.42960075  0.31709815     0.34720
C1530       C  0.80829759  0.45038521  0.22996732    -0.27010
C1531       C  0.84690744  0.45053561  0.23367629    -0.15090
C1532       C  0.88464092  0.98724813  0.23895114     0.35540
C1533       C  0.88139015  0.01980969  0.24790913    -0.26460
C1534       C  0.84375166  0.02029753  0.24276434    -0.15700
C1535       C  0.80608744  0.98421794  0.23630093     0.36630
N1536       N  0.76594589  0.98232699  0.23523468    -0.89950
H1537       H  0.77895898  0.42270297  0.22575215     0.17740
H1538       H  0.90973377  0.04536867  0.25747578     0.17730
N1539       N  0.92646254  0.99362956  0.23201498    -0.88980
H1540       H  0.74546507  0.46069863  0.25754976     0.35110
H1541       H  0.75342280  0.97277260  0.20718150     0.40210
H1542       H  0.94436557  0.50690707  0.25679139     0.39830
H1543       H  0.44088984  0.01397583  0.20686189     0.34720
C1544       C  0.96351690  0.34479363  0.11468057    -0.27010
C1545       C  0.99936144  0.36939710  0.08937633    -0.15090
C1546       C  0.53702391  0.39689441  0.10697011     0.35540
C1547       C  0.53742746  0.40058210  0.14882612    -0.26460
C1548       C  0.99985584  0.38028493  0.17370414    -0.15700
C1549       C  0.96413114  0.34832284  0.15653781     0.36630
N1550       N  0.92759646  0.32007183  0.18072244    -0.89950
H1551       H  0.93576642  0.32027078  0.10245727     0.17740
H1552       H  0.56736459  0.42047329  0.16130869     0.17730
N1553       N  0.57564167  0.41925592  0.08258338    -0.88980
H1554       H  0.92249275  0.29122413  0.17674569     0.35110
H1555       H  0.90154129  0.32145817  0.17036747     0.40210
H1556       H  0.59764289  0.41197298  0.09382872     0.39830
H1557       H  0.58746227  0.44991032  0.08573986     0.34720
C1558       C  0.52681575  0.36659282  0.26725594    -0.27010
C1559       C  0.49039380  0.36393964  0.25011904    -0.15090
C1560       C  0.95195168  0.34043414  0.27359244     0.35540
C1561       C  0.95249422  0.33289572  0.31524576    -0.26460
C1562       C  0.49032865  0.34557990  0.33456967    -0.15700
C1563       C  0.52800711  0.36080487  0.30955546     0.36630
N1564       N  0.56832118  0.37313389  0.32590800    -0.89950
H1565       H  0.55651132  0.38111406  0.24940291     0.17740
H1566       H  0.92279334  0.31692498  0.33277220     0.17730
N1567       N  0.91206775  0.32548503  0.25585134    -0.88980
H1568       H  0.56752753  0.34826311  0.34063505     0.35110
H1569       H  0.57431983  0.39474363  0.34659084     0.40210
H1570       H  0.89663965  0.33879559  0.26883094     0.39830
H1571       H  0.89423730  0.29433266  0.26246531     0.34720
C1572       C  0.94867177  0.41450542  0.25424447    -0.27010
C1573       C  0.95976864  0.40555109  0.21666756    -0.15090
C1574       C  0.93965298  0.41064602  0.18259797     0.35540
C1575       C  0.90423975  0.41394672  0.18847804    -0.26460
C1576       C  0.88758862  0.41399924  0.22710047    -0.15700
C1577       C  0.91380125  0.41917641  0.25979949     0.36630
N1578       N  0.90609869  0.43009875  0.29844741    -0.89950
H1579       H  0.96480983  0.41496478  0.28103240     0.17740
H1580       H  0.89042312  0.41635686  0.16110620     0.17730
N1581       N  0.95477070  0.41427808  0.14156244    -0.88980
H1582       H  0.90416504  0.40883092  0.32047969     0.35110
H1583       H  0.93259437  0.45738092  0.30468063     0.40210
H1584       H  0.46097414  0.44206256  0.12833638     0.39830
H1585       H  0.93013628  0.39231482  0.12584741     0.34720
C1586       C  0.70769783  0.08421234  0.18448676    -0.27010
C1587       C  0.68183069  0.04824258  0.20975166    -0.15090
C1588       C  0.67175232  0.01272460  0.18942541     0.35540
C1589       C  0.67479678  0.01376062  0.14650616    -0.26460
C1590       C  0.68974589  0.04978087  0.12186980    -0.15700
C1591       C  0.70834682  0.08568320  0.14177887     0.36630
N1592       N  0.72872575  0.12391991  0.11883915    -0.89950
H1593       H  0.72680947  0.11257359  0.19695790     0.17740
H1594       H  0.66399000  0.48563330  0.13248101     0.17730
N1595       N  0.65513652  0.47467794  0.21175654    -0.88980
H1596       H  0.74238874  0.14761900  0.13785144     0.35110
H1597       H  0.70513523  0.12663728  0.10425615     0.40210
H1598       H  0.67536373  0.46353073  0.20586130     0.39830
H1599       H  0.62557825  0.45456995  0.20124575     0.34720
C1600       C  0.65543981  0.07139725  0.31947796    -0.27010
C1601       C  0.66264256  0.04719939  0.29216861    -0.15090
C1602       C  0.66995391  0.01767389  0.31173955     0.35540
C1603       C  0.67563353  0.01751775  0.35392548    -0.26460
C1604       C  0.67630867  0.04740730  0.37730745    -0.15700
C1605       C  0.66490167  0.07379712  0.35989821     0.36630
N1606       N  0.66233899  0.10348258  0.38248975    -0.89950
H1607       H  0.64062768  0.08844205  0.31044353     0.17740
H1608       H  0.68268186  0.99561827  0.36765453     0.17730
N1609       N  0.66855247  0.98596177  0.29015211    -0.88980
H1610       H  0.68781179  0.13165537  0.37228043     0.35110
H1611       H  0.66518618  0.09962390  0.41339335     0.40210
H1612       H  0.64330529  0.95873385  0.30269891     0.39830
H1613       H  0.69627790  0.98512293  0.29477609     0.34720
C1614       C  0.54548887  0.44785352  0.26302038    -0.27010
C1615       C  0.53463136  0.43806537  0.22287939    -0.15090
C1616       C  0.55352199  0.97129691  0.19359899     0.35540
C1617       C  0.59088811  0.00558989  0.20176567    -0.26460
C1618       C  0.60643261  0.01153449  0.24083868    -0.15700
C1619       C  0.57880524  0.48441715  0.27245690     0.36630
N1620       N  0.58100291  0.49432026  0.31369945    -0.89950
H1621       H  0.52712406  0.42793292  0.28860660     0.17740
H1622       H  0.60725355  0.02893956  0.17764012     0.17730
N1623       N  0.53517872  0.97148776  0.15606331    -0.88980
H1624       H  0.55304626  0.49379436  0.32222896     0.35110
H1625       H  0.58254539  0.97208504  0.33177056     0.40210
H1626       H  0.52811111  0.99465520  0.15551599     0.39830
H1627       H  0.55785035  0.97866249  0.13262168     0.34720
C1628       C  0.70097662  0.21591812  0.17602644    -0.27010
C1629       C  0.68860890  0.23268807  0.20724597    -0.15090
C1630       C  0.69430661  0.27196055  0.19720983     0.35540
C1631       C  0.70149323  0.28669316  0.15631799    -0.26460
C1632       C  0.70147523  0.26316178  0.12513293    -0.15700
C1633       C  0.70502591  0.22937752  0.13554905     0.36630
N1634       N  0.71150227  0.20762077  0.10516938    -0.89950
H1635       H  0.70213938  0.18866594  0.18069698     0.17740
H1636       H  0.70245163  0.31485408  0.14879801     0.17730
N1637       N  0.68625109  0.29477113  0.22554616    -0.88980
H1638       H  0.68620107  0.17795242  0.10786047     0.35110
H1639       H  0.73944784  0.20744129  0.11069311     0.40210
H1640       H  0.67333804  0.27864704  0.25305720     0.39830
H1641       H  0.66276683  0.29997403  0.21434169     0.34720
C1642       C  0.70938826  0.24846836  0.29405420    -0.27010
C1643       C  0.66913436  0.21610092  0.28734381    -0.15090
C1644       C  0.64472592  0.19271605  0.32372022     0.35540
C1645       C  0.65389531  0.20986546  0.36136185    -0.26460
C1646       C  0.69355226  0.24270851  0.36612474    -0.15700
C1647       C  0.72326122  0.25517244  0.33340780     0.36630
N1648       N  0.76410134  0.26084341  0.34083697    -0.89950
H1649       H  0.73274442  0.26307995  0.26919129     0.17740
H1650       H  0.63277337  0.19443128  0.38768905     0.17730
N1651       N  0.61811465  0.14995152  0.32507247    -0.88980
H1652       H  0.77795618  0.25841305  0.31407101     0.35110
H1653       H  0.76008521  0.23657557  0.35992730     0.40210
H1654       H  0.58997113  0.14201078  0.34149399     0.39830
H1655       H  0.63293275  0.13744137  0.34165102     0.34720
C1656       C  0.61841407  0.12918400  0.22741316    -0.27010
C1657       C  0.65436213  0.16267943  0.24109126    -0.15090
C1658       C  0.68950422  0.15880615  0.25085460     0.35540
C1659       C  0.68718155  0.12236571  0.24804235    -0.26460
C1660       C  0.64957982  0.08727396  0.23885609    -0.15700
C1661       C  0.61354284  0.09121926  0.23101405     0.36630
N1662       N  0.57105155  0.05804967  0.23062576    -0.89950
H1663       H  0.59186677  0.13098120  0.21619665     0.17740
H1664       H  0.71430860  0.12040178  0.25770225     0.17730
N1665       N  0.72874900  0.19235354  0.26139809    -0.88980
H1666       H  0.55283075  0.06038690  0.25384535     0.35110
H1667       H  0.55846585  0.05996719  0.20311531     0.40210
H1668       H  0.75257369  0.19653516  0.24044756     0.39830
H1669       H  0.73604768  0.18523580  0.28982609     0.34720
C1670       C  0.97797806  0.20647246  0.12134705    -0.27010
C1671       C  0.98227141  0.24377963  0.11334437    -0.15090
C1672       C  0.49620604  0.27091915  0.14428881     0.35540
C1673       C  0.49493846  0.25683733  0.18442326    -0.26460
C1674       C  0.99330848  0.22005497  0.19289566    -0.15700
C1675       C  0.99031940  0.19756639  0.15801312     0.36630
N1676       N  0.00888098  0.17263917  0.15553442    -0.89950
H1677       H  0.97282365  0.18738206  0.09661128     0.17740
H1678       H  0.50226454  0.27765421  0.20773668     0.17730
N1679       N  0.51996033  0.31322351  0.13427647    -0.88980
H1680       H  0.03456934  0.18669104  0.13442966     0.35110
H1681       H  0.98730354  0.14567965  0.14358211     0.40210
H1682       H  0.54762393  0.31893916  0.11842826     0.39830
H1683       H  0.53060217  0.32861543  0.16046112     0.34720
C1684       C  0.96956009  0.23834408  0.28618543    -0.27010
C1685       C  0.50549390  0.23893487  0.26917304    -0.15090
C1686       C  0.54335791  0.26054859  0.28974038     0.35540
C1687       C  0.54050713  0.26209143  0.33140592    -0.26460
C1688       C  0.50156412  0.25010558  0.35177203    -0.15700
C1689       C  0.96662790  0.24203846  0.32809440     0.36630
N1690       N  0.92775163  0.23568576  0.34642307    -0.89950
H1691       H  0.94144298  0.22816237  0.26904331     0.17740
H1692       H  0.56932797  0.27481287  0.34780375     0.17730
N1693       N  0.58416516  0.27999294  0.26853525    -0.88980
H1694       H  0.90341517  0.20677829  0.34139139     0.35110
H1695       H  0.91992272  0.25521827  0.33130891     0.40210
H1696       H  0.58544293  0.30230854  0.24828791     0.39830
H1697       H  0.60844975  0.29456384  0.28832881     0.34720
C1698       C  0.57201567  0.22495434  0.20532896    -0.27010
C1699       C  0.54111234  0.20614817  0.23715061    -0.15090
C1700       C  0.54682046  0.18261213  0.26780669     0.35540
C1701       C  0.57976476  0.17588400  0.26302262    -0.26460
C1702       C  0.61336425  0.19901932  0.23538990    -0.15700
C1703       C  0.60348379  0.21541480  0.20120847     0.36630
N1704       N  0.61816238  0.21387336  0.16140248    -0.89950
H1705       H  0.56960095  0.24361938  0.18133622     0.17740
H1706       H  0.57613658  0.14937182  0.27799689     0.17730
N1707       N  0.51884420  0.16438637  0.30304649    -0.88980
H1708       H  0.60782394  0.22703764  0.13953100     0.35110
H1709       H  0.60514340  0.18357163  0.15560860     0.40210
H1710       H  0.02569510  0.18707915  0.32248651     0.39830
H1711       H  0.52463639  0.14370924  0.31907516     0.34720
C1712       C  0.89230652  0.12559489  0.27197835    -0.26800
C1713       C  0.88570043  0.09715153  0.24361853    -0.15090
C1714       C  0.92020204  0.10456271  0.21759613     0.35540
C1715       C  0.95973215  0.13474165  0.22597988    -0.26460
C1716       C  0.96412118  0.16589230  0.24866291    -0.15700
C1717       C  0.93245667  0.15532327  0.27914869     0.36630
N1718       N  0.94295834  0.16033558  0.32071505    -0.89950
H1719       H  0.86745702  0.12263075  0.29247410     0.17740
H1720       H  0.48692901  0.13414017  0.21417670     0.17730
N1721       N  0.91600029  0.08047217  0.18457311    -0.88980
H1722       H  0.94417525  0.13496019  0.33147694     0.35110
H1723       H  0.91785325  0.15871792  0.33780530     0.40210
H1724       H  0.92138092  0.09797189  0.15769245     0.39830
H1725       H  0.43893993  0.07192275  0.18572362     0.34720
C1726       C  0.00107779  0.20877832  0.73700450    -0.03180
C1727       C  0.65701471  0.20328865  0.74275839    -0.03180
C1728       C  0.65078896  0.04777567  0.74594460    -0.03180
C1729       C  0.99609436  0.39605276  0.71512859    -0.03180
C1730       C  0.84342215  0.41015400  0.73210523    -0.03180
C1731       C  0.84252313  0.05911602  0.74300063    -0.03180
O1732       O  0.74347261  0.02005702  0.91453286    -0.80830
O1733       O  0.78509295  0.10158334  0.56923609    -0.80860
O1734       O  0.82099602  0.15264908  0.93347646    -0.80860
O1735       O  0.74928524  0.46988563  0.53308798    -0.80810
O1736       O  0.82571969  0.14186989  0.49795385    -0.80930
O1737       O  0.73282040  0.46502808  0.97094722    -0.80850
O1738       O  0.76126569  0.03508951  0.57803877    -0.80830
O1739       O  0.80344100  0.07235505  0.93360977    -0.80870
C1740       C  0.78221248  0.04679945  0.90809702     1.08860
C1741       C  0.78376885  0.07152175  0.58740818     1.08740
C1742       C  0.84223685  0.16542896  0.96503032     1.08880
C1743       C  0.74438984  0.45166671  0.00099795     1.08760
O1744       O  0.66024126  0.45723825  0.94766901    -0.80830
O1745       O  0.76626700  0.15658202  0.52927575    -0.80910
O1746       O  0.73777375  0.08478481  0.91245101    -0.80840
O1747       O  0.67770393  0.01648182  0.56034286    -0.80820
O1748       O  0.70490990  0.08028684  0.55190730    -0.80880
O1749       O  0.68261393  0.03596461  0.94768325    -0.80840
O1750       O  0.66361908  0.45311155  0.51473154    -0.80800
O1751       O  0.74759345  0.13544313  0.96942409    -0.80870
Co1752     Co  0.70847577  0.00392195  0.96510480     1.51530
Co1753     Co  0.76032389  0.10433511  0.51946205     1.51690
Co1754     Co  0.77651398  0.10022602  0.95790117     1.51570
Co1755     Co  0.71661722  0.99905665  0.54284632     1.51470
O1756       O  0.74781875  0.04858333  0.99765060    -1.42770
C1757       C  0.64402363  0.43832764  0.98194057     1.08790
C1758       C  0.75525690  0.16261423  0.99480371     1.08880
C1759       C  0.69896127  0.05743967  0.91495566     1.08810
C1760       C  0.69058594  0.04912872  0.57608065     1.08790
O1761       O  0.51476150  0.35859670  0.90273120    -0.80830
O1762       O  0.97517650  0.34194005  0.52554532    -0.80860
O1763       O  0.91090234  0.29979674  0.96520408    -0.80860
O1764       O  0.59882800  0.36872958  0.50706541    -0.80810
O1765       O  0.89402269  0.27699133  0.52810686    -0.80930
O1766       O  0.57589929  0.39236270  0.95877669    -0.80850
O1767       O  0.52754843  0.33846774  0.55427109    -0.80830
O1768       O  0.95767760  0.30158900  0.89302780    -0.80870
C1769       C  0.48741540  0.33557464  0.87918142     1.08860
C1770       C  0.00236582  0.35174182  0.55242754     1.08740
C1771       C  0.88467227  0.29011063  0.99685991     1.08880
C1772       C  0.60359544  0.39829070  0.98379782     1.08760
O1773       O  0.60358800  0.33453253  0.94471514    -0.80830
O1774       O  0.90938557  0.22292340  0.49322631    -0.80910
O1775       O  0.97462004  0.24477953  0.92050849    -0.80840
O1776       O  0.50578160  0.25718661  0.54401857    -0.80820
O1777       O  0.95551058  0.26858078  0.56210744    -0.80880
O1778       O  0.53471083  0.29836418  0.89574236    -0.80840
O1779       O  0.57868162  0.28713747  0.49336505    -0.80800
O1780       O  0.89365340  0.23042899  0.93151930    -0.80870
Co1781     Co  0.55279697  0.34284152  0.92959572     1.51530
Co1782     Co  0.94799797  0.28634398  0.50681137     1.51690
Co1783     Co  0.94840892  0.27288785  0.94711283     1.51570
Co1784     Co  0.54842389  0.31131398  0.52089058     1.51470
O1785       O  0.50667248  0.30618826  0.97527416    -1.42770
C1786       C  0.60928301  0.31068632  0.96888722     1.08790
C1787       C  0.88362949  0.20758771  0.96350773     1.08880
C1788       C  0.50412651  0.26323871  0.89293884     1.08810
C1789       C  0.98035141  0.25604993  0.57101117     1.08790
O1790       O  0.79312453  0.30282794  0.90608185    -0.80830
O1791       O  0.78599154  0.36566702  0.54292317    -0.80860
O1792       O  0.75981385  0.39990339  0.97084548    -0.80860
O1793       O  0.81616579  0.27404372  0.52740814    -0.80810
O1794       O  0.72325148  0.38395129  0.52990373    -0.80930
O1795       O  0.83040324  0.30331586  0.96874804    -0.80850
O1796       O  0.78299281  0.31081926  0.57052905    -0.80830
O1797       O  0.80237550  0.35950779  0.92820800    -0.80870
C1798       C  0.80697032  0.34028760  0.90017760     1.08860
C1799       C  0.79336202  0.34713476  0.57188843     1.08740
C1800       C  0.74343359  0.41035572  0.00064436     1.08880
C1801       C  0.84281725  0.29071229  0.99784264     1.08760
O1802       O  0.77328468  0.22432675  0.95241439    -0.80830
O1803       O  0.66637713  0.30698748  0.50480485    -0.80910
O1804       O  0.72145876  0.30007399  0.90304574    -0.80840
O1805       O  0.69982995  0.25468162  0.55369299    -0.80820
O1806       O  0.70694576  0.31043721  0.57387883    -0.80880
O1807       O  0.71075279  0.24383249  0.93575889    -0.80840
O1808       O  0.73307977  0.21223185  0.50792312    -0.80800
O1809       O  0.68174083  0.33259138  0.94387476    -0.80870
Co1810     Co  0.76769563  0.27238527  0.95837107     1.51530
Co1811     Co  0.72899244  0.33745788  0.51937073     1.51690
Co1812     Co  0.74283388  0.34425400  0.94177762     1.51570
Co1813     Co  0.75676202  0.26684396  0.53495751     1.51470
O1814       O  0.74860686  0.30512836  0.98872980    -1.42770
C1815       C  0.75310978  0.20089181  0.98391986     1.08790
C1816       C  0.65394243  0.31565772  0.97237970     1.08880
C1817       C  0.70671332  0.26216993  0.90472834     1.08810
C1818       C  0.69936432  0.27509194  0.58237982     1.08790
C1819       C  0.83022302  0.04458273  0.66877856    -0.27010
C1820       C  0.82659995  0.06536170  0.70170521    -0.15090
C1821       C  0.82029936  0.09822220  0.69135254     0.35540
C1822       C  0.80911829  0.10298005  0.65208737    -0.26460
C1823       C  0.80797289  0.07774439  0.62260325    -0.15700
C1824       C  0.82330128  0.05205747  0.62994849     0.36630
N1825       N  0.83057291  0.53245191  0.59767768    -0.89950
H1826       H  0.84190540  0.52397932  0.67130512     0.17740
H1827       H  0.80040576  0.12552120  0.64505222     0.17730
N1828       N  0.82683351  0.12750997  0.71953820    -0.88980
H1829       H  0.81051664  0.50139786  0.60309310     0.35110
H1830       H  0.86207315  0.53919614  0.59764954     0.40210
H1831       H  0.85261834  0.15500830  0.70824921     0.39830
H1832       H  0.80051588  0.13134120  0.72002940     0.34720
C1833       C  0.84276296  0.04655115  0.81788097    -0.27010
C1834       C  0.82036193  0.05207985  0.78532386    -0.15090
C1835       C  0.78532422  0.05626645  0.79568908     0.35540
C1836       C  0.77752823  0.05926380  0.83627221    -0.26460
C1837       C  0.79898300  0.05194920  0.86725072    -0.15700
C1838       C  0.83161669  0.04484265  0.85800440     0.36630
N1839       N  0.85476037  0.03665210  0.88798433    -0.89950
H1840       H  0.87123829  0.04541142  0.81243923     0.17740
H1841       H  0.75369985  0.06666106  0.84373720     0.17730
N1842       N  0.75574021  0.05556216  0.76768109    -0.88980
H1843       H  0.84950898  0.00769869  0.88437751     0.35110
H1844       H  0.84391285  0.03632618  0.91734697     0.40210
H1845       H  0.75918596  0.04690669  0.73945790     0.39830
H1846       H  0.75739144  0.08342646  0.76582095     0.34720
C1847       C  0.81218724  0.40133457  0.61828370    -0.27010
C1848       C  0.80527847  0.36334411  0.61227834    -0.15090
C1849       C  0.80510630  0.33929283  0.64635073     0.35540
C1850       C  0.80767388  0.35235952  0.68542553    -0.26460
C1851       C  0.82004365  0.39240931  0.69185602    -0.15700
C1852       C  0.82464031  0.41792801  0.65559158     0.36630
N1853       N  0.84843332  0.46130040  0.65423354    -0.89950
H1854       H  0.81298414  0.42007300  0.59240743     0.17740
H1855       H  0.80514039  0.33202302  0.71009069     0.17730
N1856       N  0.80478034  0.30235559  0.64166496    -0.88980
H1857       H  0.84865222  0.47412882  0.62576356     0.35110
H1858       H  0.88014655  0.47025772  0.65819136     0.40210
H1859       H  0.78111382  0.28003103  0.66128373     0.39830
H1860       H  0.83352112  0.30616625  0.65126077     0.34720
C1861       C  0.82704376  0.35266598  0.78641704    -0.27010
C1862       C  0.82189926  0.38608430  0.77493814    -0.15090
C1863       C  0.80994843  0.40211392  0.80871111     0.35540
C1864       C  0.80440303  0.38544134  0.84790822    -0.26460
C1865       C  0.81582845  0.35738214  0.85810122    -0.15700
C1866       C  0.82889428  0.34185632  0.82745526     0.36630
N1867       N  0.84642256  0.31701165  0.83879074    -0.89950
H1868       H  0.83744733  0.33983576  0.76407508     0.17740
H1869       H  0.79330546  0.39700078  0.87144758     0.17730
N1870       N  0.80609563  0.43723817  0.80647569    -0.88980
H1871       H  0.87602909  0.33561891  0.85014015     0.35110
H1872       H  0.84978269  0.30279188  0.81435689     0.40210
H1873       H  0.82829868  0.45861970  0.82461820     0.39830
H1874       H  0.77566618  0.42960792  0.81709941     0.34720
C1875       C  0.80829726  0.45038434  0.72996800    -0.27010
C1876       C  0.84690786  0.45053586  0.73367613    -0.15090
C1877       C  0.88464007  0.98724784  0.73895135     0.35540
C1878       C  0.88138969  0.01980961  0.74790936    -0.26460
C1879       C  0.84375148  0.02029789  0.74276437    -0.15700
C1880       C  0.80608712  0.98421856  0.73630058     0.36630
N1881       N  0.76594579  0.98232804  0.73523407    -0.89950
H1882       H  0.77895896  0.42270167  0.72575327     0.17740
H1883       H  0.90973341  0.04536844  0.75747605     0.17730
N1884       N  0.92646156  0.99362895  0.73201509    -0.88980
H1885       H  0.74546397  0.46069658  0.75755087     0.35110
H1886       H  0.75342291  0.97277394  0.70718074     0.40210
H1887       H  0.94436533  0.50690837  0.75679211     0.39830
H1888       H  0.44088934  0.01397657  0.70686302     0.34720
C1889       C  0.96351708  0.34479378  0.61468084    -0.27010
C1890       C  0.99936144  0.36939702  0.58937629    -0.15090
C1891       C  0.53702391  0.39689493  0.60697040     0.35540
C1892       C  0.53742694  0.40058263  0.64882637    -0.26460
C1893       C  0.99985673  0.38028520  0.67370417    -0.15700
C1894       C  0.96413169  0.34832323  0.65653809     0.36630
N1895       N  0.92759704  0.32007257  0.68072295    -0.89950
H1896       H  0.93576638  0.32027099  0.60245775     0.17740
H1897       H  0.56736382  0.42047408  0.66130917     0.17730
N1898       N  0.57564187  0.41925665  0.58258399    -0.88980
H1899       H  0.92249295  0.29122472  0.67674628     0.35110
H1900       H  0.90154196  0.32145917  0.67036813     0.40210
H1901       H  0.59764311  0.41197388  0.59382963     0.39830
H1902       H  0.58746221  0.44991101  0.58574048     0.34720
C1903       C  0.52681455  0.36659195  0.76725511    -0.27010
C1904       C  0.49039256  0.36393900  0.75011861    -0.15090
C1905       C  0.95195296  0.34043551  0.77359282     0.35540
C1906       C  0.95249535  0.33289718  0.81524618    -0.26460
C1907       C  0.49032764  0.34557835  0.83456889    -0.15700
C1908       C  0.52800598  0.36080334  0.80955449     0.36630
N1909       N  0.56831999  0.37313147  0.82590677    -0.89950
H1910       H  0.55651007  0.38111336  0.74940198     0.17740
H1911       H  0.92279441  0.31692657  0.83277251     0.17730
N1912       N  0.91206906  0.32548658  0.75585171    -0.88980
H1913       H  0.56752584  0.34826022  0.84063328     0.35110
H1914       H  0.57431913  0.39474097  0.84659002     0.40210
H1915       H  0.89664107  0.33879723  0.76883139     0.39830
H1916       H  0.89423848  0.29433422  0.76246568     0.34720
C1917       C  0.94867385  0.41450705  0.75424439    -0.27010
C1918       C  0.95977046  0.40555243  0.71666753    -0.15090
C1919       C  0.93965468  0.41064729  0.68259801     0.35540
C1920       C  0.90424147  0.41394804  0.68847817    -0.26460
C1921       C  0.88759042  0.41400057  0.72710064    -0.15700
C1922       C  0.91380328  0.41917796  0.75979954     0.36630
N1923       N  0.90610090  0.43010034  0.79844751    -0.89950
H1924       H  0.96481202  0.41496653  0.78103226     0.17740
H1925       H  0.89042466  0.41635802  0.66110639     0.17730
N1926       N  0.95477224  0.41427915  0.64156246    -0.88980
H1927       H  0.90416728  0.40883248  0.82047975     0.35110
H1928       H  0.93259663  0.45738250  0.80468066     0.40210
H1929       H  0.46097274  0.44206227  0.62833648     0.39830
H1930       H  0.93013770  0.39231591  0.62584753     0.34720
C1931       C  0.70769773  0.08421251  0.68448661    -0.27010
C1932       C  0.68183081  0.04824282  0.70975169    -0.15090
C1933       C  0.67175249  0.01272475  0.68942562     0.35540
C1934       C  0.67479691  0.01376058  0.64650638    -0.26460
C1935       C  0.68974582  0.04978069  0.62186985    -0.15700
C1936       C  0.70834661  0.08568313  0.64177872     0.36630
N1937       N  0.72872526  0.12391973  0.61883880    -0.89950
H1938       H  0.72680916  0.11257388  0.69695760     0.17740
H1939       H  0.66398899  0.48563177  0.63248335     0.17730
N1940       N  0.65513307  0.47467700  0.71175866    -0.88980
H1941       H  0.74238819  0.14761894  0.63785095     0.35110
H1942       H  0.70513459  0.12663686  0.60425582     0.40210
H1943       H  0.67536019  0.46352948  0.70586440     0.39830
H1944       H  0.62557502  0.45456914  0.70124737     0.34720
C1945       C  0.65543985  0.07139754  0.81947799    -0.27010
C1946       C  0.66264271  0.04719973  0.79216865    -0.15090
C1947       C  0.66995414  0.01767429  0.81173962     0.35540
C1948       C  0.67563374  0.01751817  0.85392554    -0.26460
C1949       C  0.67630883  0.04740771  0.87730749    -0.15700
C1950       C  0.66490172  0.07379744  0.85989825     0.36630
N1951       N  0.66233892  0.10348284  0.88248978    -0.89950
H1952       H  0.64062767  0.08844231  0.81044354     0.17740
H1953       H  0.68268211  0.99561873  0.86765462     0.17730
N1954       N  0.66855284  0.98596222  0.79015222    -0.88980
H1955       H  0.68781172  0.13165565  0.87228052     0.35110
H1956       H  0.66518606  0.09962413  0.91339339     0.40210
H1957       H  0.64330572  0.95873427  0.80269902     0.39830
H1958       H  0.69627832  0.98512348  0.79477622     0.34720
C1959       C  0.54548691  0.44785259  0.76302110    -0.27010
C1960       C  0.53462965  0.43806502  0.72287993    -0.15090
C1961       C  0.55352215  0.97129701  0.69359902     0.35540
C1962       C  0.59088824  0.00559004  0.70176569    -0.26460
C1963       C  0.60643275  0.01153474  0.74083871    -0.15700
C1964       C  0.57880290  0.48441624  0.77245812     0.36630
N1965       N  0.58100050  0.49431851  0.81370095    -0.89950
H1966       H  0.52712216  0.42793146  0.78860706     0.17740
H1967       H  0.60725366  0.02893969  0.67764012     0.17730
N1968       N  0.53517881  0.97148780  0.65606336    -0.88980
H1969       H  0.55304363  0.49379204  0.82223087     0.35110
H1970       H  0.58254570  0.97208522  0.83177057     0.40210
H1971       H  0.52811115  0.99465522  0.65551606     0.39830
H1972       H  0.55785042  0.97866255  0.63262171     0.34720
C1973       C  0.70097646  0.21591849  0.67602628    -0.27010
C1974       C  0.68860849  0.23268833  0.70724571    -0.15090
C1975       C  0.69430593  0.27196071  0.69720947     0.35540
C1976       C  0.70149275  0.28669334  0.65631762    -0.26460
C1977       C  0.70147498  0.26316202  0.62513263    -0.15700
C1978       C  0.70502581  0.22937785  0.63554886     0.36630
N1979       N  0.71150241  0.20762116  0.60516928    -0.89950
H1980       H  0.70213947  0.18866645  0.68069694     0.17740
H1981       H  0.70245102  0.31485420  0.64879757     0.17730
N1982       N  0.68624997  0.29477111  0.72554565    -0.88980
H1983       H  0.68620130  0.17795277  0.60786036     0.35110
H1984       H  0.73944803  0.20744182  0.61069314     0.40210
H1985       H  0.67333672  0.27864694  0.75305663     0.39830
H1986       H  0.66276569  0.29997386  0.71434095     0.34720
C1987       C  0.70938800  0.24846930  0.79405361    -0.27010
C1988       C  0.66913424  0.21610151  0.78734355    -0.15090
C1989       C  0.64472610  0.19271687  0.82372014     0.35540
C1990       C  0.65389567  0.20986653  0.86136167    -0.26460
C1991       C  0.69355252  0.24270985  0.86612430    -0.15700
C1992       C  0.72326122  0.25517399  0.83340709     0.36630
N1993       N  0.76410195  0.26084649  0.84083593    -0.89950
H1994       H  0.73274397  0.26308089  0.76919055     0.17740
H1995       H  0.63277399  0.19443233  0.88768902     0.17730
N1996       N  0.61811489  0.14995233  0.82507271    -0.88980
H1997       H  0.77795726  0.25841713  0.81406976     0.35110
H1998       H  0.76008682  0.23657878  0.85992587     0.40210
H1999       H  0.58997139  0.14201169  0.84149420     0.39830
H2000       H  0.63293307  0.13744230  0.84165134     0.34720
C2001       C  0.61841448  0.12918435  0.72741257    -0.27010
C2002       C  0.65436223  0.16267975  0.74109116    -0.15090
C2003       C  0.68950432  0.15880656  0.75085472     0.35540
C2004       C  0.68718178  0.12236613  0.74804246    -0.26460
C2005       C  0.64958009  0.08727433  0.73885609    -0.15700
C2006       C  0.61354319  0.09121962  0.73101372     0.36630
N2007       N  0.57105189  0.05805005  0.73062535    -0.89950
H2008       H  0.59186735  0.13098154  0.71619554     0.17740
H2009       H  0.71430886  0.12040225  0.75770232     0.17730
N2010       N  0.72874893  0.19235401  0.76139845    -0.88980
H2011       H  0.55283100  0.06038740  0.75384478     0.35110
H2012       H  0.55846633  0.05996749  0.70311479     0.40210
H2013       H  0.75257381  0.19653575  0.74044809     0.39830
H2014       H  0.73604744  0.18523630  0.78982655     0.34720
C2015       C  0.97797731  0.20647245  0.62134722    -0.27010
C2016       C  0.98227109  0.24377975  0.61334418    -0.15090
C2017       C  0.49620510  0.27091844  0.64428932     0.35540
C2018       C  0.49493733  0.25683617  0.68442364    -0.26460
C2019       C  0.99330824  0.22005564  0.69289559    -0.15700
C2020       C  0.99031885  0.19756667  0.65801331     0.36630
N2021       N  0.00888062  0.17263960  0.65553473    -0.89950
H2022       H  0.97282259  0.18738177  0.59661165     0.17740
H2023       H  0.50226298  0.27765265  0.70773739     0.17730
N2024       N  0.51995859  0.31322294  0.63427762    -0.88980
H2025       H  0.03456893  0.18669149  0.63442992     0.35110
H2026       H  0.98730329  0.14568001  0.64358249     0.40210
H2027       H  0.54762265  0.31893945  0.61842969     0.39830
H2028       H  0.53059966  0.32861454  0.66046255     0.34720
C2029       C  0.96955970  0.23834509  0.78618535    -0.27010
C2030       C  0.50549318  0.23893309  0.76917339    -0.15090
C2031       C  0.54335704  0.26054576  0.78974127     0.35540
C2032       C  0.54050596  0.26208821  0.83140686    -0.26460
C2033       C  0.50156304  0.25010324  0.85177264    -0.15700
C2034       C  0.96662794  0.24203973  0.82809430     0.36630
N2035       N  0.92775184  0.23568705  0.84642335    -0.89950
H2036       H  0.94144236  0.22816304  0.76904351     0.17740
H2037       H  0.56932661  0.27480906  0.84780497     0.17730
N2038       N  0.58416452  0.27998978  0.76853658    -0.88980
H2039       H  0.90341532  0.20677952  0.84139197     0.35110
H2040       H  0.91992270  0.25521942  0.83130923     0.40210
H2041       H  0.58544304  0.30230594  0.74828955     0.39830
H2042       H  0.60844895  0.29455993  0.78833047     0.34720
C2043       C  0.57201450  0.22495307  0.70532886    -0.27010
C2044       C  0.54111082  0.20614609  0.73715015    -0.15090
C2045       C  0.54681886  0.18260965  0.76780585     0.35540
C2046       C  0.57976419  0.17588289  0.76302227    -0.26460
C2047       C  0.61336382  0.19901903  0.73538984    -0.15700
C2048       C  0.60348311  0.21541426  0.70120840     0.36630
N2049       N  0.61816203  0.21387327  0.66140240    -0.89950
H2050       H  0.56959986  0.24361839  0.68133637     0.17740
H2051       H  0.57613669  0.14937095  0.77799648     0.17730
N2052       N  0.51884184  0.16438255  0.80304501    -0.88980
H2053       H  0.60782322  0.22703723  0.63953095     0.35110
H2054       H  0.60514362  0.18357163  0.65560842     0.40210
H2055       H  0.02569507  0.18708212  0.82248721     0.39830
H2056       H  0.52463436  0.14370554  0.81907346     0.34720
C2057       C  0.89230636  0.12559569  0.77197801    -0.26800
C2058       C  0.88570072  0.09715204  0.74361867    -0.15090
C2059       C  0.92020262  0.10456312  0.71759679     0.35540
C2060       C  0.95973256  0.13474244  0.72598054    -0.26460
C2061       C  0.96412113  0.16589324  0.74866311    -0.15700
C2062       C  0.93245633  0.15532426  0.77914855     0.36630
N2063       N  0.94295761  0.16033665  0.82071500    -0.89950
H2064       H  0.86745659  0.12263162  0.79247336     0.17740
H2065       H  0.48692672  0.13413827  0.71417625     0.17730
N2066       N  0.91600127  0.08047236  0.68457409    -0.88980
H2067       H  0.94417484  0.13496146  0.83147701     0.35110
H2068       H  0.91785219  0.15871861  0.83780503     0.40210
H2069       H  0.92138153  0.09797170  0.65769323     0.39830
H2070       H  0.43893729  0.07192125  0.68572322     0.34720
C2071       C  0.00107842  0.70877877  0.23700449    -0.03180
C2072       C  0.65701415  0.70328793  0.24275836    -0.03180
C2073       C  0.65079006  0.54777580  0.24594373    -0.03180
C2074       C  0.99609454  0.89605277  0.21512855    -0.03180
C2075       C  0.84342221  0.91015381  0.23210509    -0.03180
C2076       C  0.84252406  0.55911626  0.24300070    -0.03180
O2077       O  0.74347271  0.52005664  0.41453260    -0.80830
O2078       O  0.78509316  0.60158370  0.06923631    -0.80860
O2079       O  0.82099688  0.65264865  0.43347611    -0.80860
O2080       O  0.74928289  0.96988484  0.03308959    -0.80810
O2081       O  0.82572002  0.64186964  0.99795373    -0.80930
O2082       O  0.73281969  0.96502733  0.47094650    -0.80850
O2083       O  0.76126348  0.53508943  0.07803981    -0.80830
O2084       O  0.80344135  0.57235434  0.43360969    -0.80870
C2085       C  0.78221272  0.54679881  0.40809691     1.08860
C2086       C  0.78376765  0.57152165  0.08740894     1.08740
C2087       C  0.84223708  0.66542886  0.46503026     1.08880
C2088       C  0.74439076  0.95166676  0.50099659     1.08760
O2089       O  0.66024091  0.95723834  0.44766903    -0.80830
O2090       O  0.76626834  0.65658314  0.02927544    -0.80910
O2091       O  0.73777470  0.58478485  0.41245057    -0.80840
O2092       O  0.67770271  0.51648334  0.06034149    -0.80820
O2093       O  0.70491034  0.58028850  0.05190705    -0.80880
O2094       O  0.68261444  0.53596496  0.44768260    -0.80840
O2095       O  0.66361787  0.95311186  0.01473166    -0.80800
O2096       O  0.74759455  0.63544331  0.46942351    -0.80870
Co2097     Co  0.70847573  0.50392186  0.46510443     1.51530
Co2098     Co  0.76032440  0.60433578  0.01946210     1.51690
Co2099     Co  0.77651475  0.60022578  0.45790087     1.51570
Co2100     Co  0.71661542  0.49905685  0.04284681     1.51470
O2101       O  0.74781897  0.54858315  0.49765018    -1.42770
C2102       C  0.64402411  0.93832756  0.48194072     1.08790
C2103       C  0.75525683  0.66261376  0.49480361     1.08880
C2104       C  0.69896212  0.55743997  0.41495502     1.08810
C2105       C  0.69058546  0.54913003  0.07607993     1.08790
O2106       O  0.51476188  0.85859718  0.40273170    -0.80830
O2107       O  0.97517626  0.84193991  0.02554533    -0.80860
O2108       O  0.91090246  0.79979658  0.46520394    -0.80860
O2109       O  0.59882760  0.86872964  0.00706512    -0.80810
O2110       O  0.89402245  0.77699116  0.02810685    -0.80930
O2111       O  0.57589950  0.89236277  0.45877739    -0.80850
O2112       O  0.52754819  0.83846772  0.05427088    -0.80830
O2113       O  0.95767787  0.80158907  0.39302779    -0.80870
C2114       C  0.48741585  0.83557524  0.37918180     1.08860
C2115       C  0.00236564  0.85174171  0.05242749     1.08740
C2116       C  0.88467242  0.79011057  0.49685977     1.08880
C2117       C  0.60359583  0.89829069  0.48379826     1.08760
O2118       O  0.60358828  0.83453268  0.44471526    -0.80830
O2119       O  0.90938546  0.72292332  0.99322622    -0.80910
O2120       O  0.97462046  0.74477967  0.42050839    -0.80840
O2121       O  0.50578144  0.75718664  0.04401851    -0.80820
O2122       O  0.95551042  0.76858064  0.06210744    -0.80880
O2123       O  0.53471128  0.79836478  0.39574235    -0.80840
O2124       O  0.57868136  0.78713745  0.99336502    -0.80800
O2125       O  0.89365371  0.73042886  0.43151921    -0.80870
Co2126     Co  0.55279732  0.84284185  0.42959603     1.51530
Co2127     Co  0.94799778  0.78634384  0.00681135     1.51690
Co2128     Co  0.94840917  0.77288782  0.44711277     1.51570
Co2129     Co  0.54842363  0.81131399  0.02089042     1.51470
O2130       O  0.50667280  0.80618836  0.47527432    -1.42770
C2131       C  0.60928326  0.81068634  0.46888719     1.08790
C2132       C  0.88362969  0.70758767  0.46350773     1.08880
C2133       C  0.50412699  0.76323933  0.39293867     1.08810
C2134       C  0.98035131  0.75604984  0.07101115     1.08790
O2135       O  0.79312427  0.80282707  0.40608144    -0.80830
O2136       O  0.78599137  0.86566715  0.04292330    -0.80860
O2137       O  0.75981435  0.89990308  0.47084451    -0.80860
O2138       O  0.81616555  0.77404368  0.02740822    -0.80810
O2139       O  0.72325107  0.88395125  0.02990466    -0.80930
O2140       O  0.83040322  0.80331533  0.46874763    -0.80850
O2141       O  0.78299264  0.81081934  0.07052908    -0.80830
O2142       O  0.80237546  0.85950699  0.42820748    -0.80870
C2143       C  0.80697011  0.84028673  0.40017709     1.08860
C2144       C  0.79336192  0.84713486  0.07188846     1.08740
C2145       C  0.74343417  0.91035564  0.50064321     1.08880
C2146       C  0.84281737  0.79071210  0.49784239     1.08760
O2147       O  0.77328459  0.72432621  0.45241422    -0.80830
O2148       O  0.66637689  0.80698769  0.00480518    -0.80910
O2149       O  0.72145848  0.80007314  0.40304556    -0.80840
O2150       O  0.69982974  0.75468172  0.05369306    -0.80820
O2151       O  0.70694566  0.81043725  0.07387914    -0.80880
O2152       O  0.71075259  0.74383179  0.43575896    -0.80840
O2153       O  0.73307950  0.71223210  0.00792303    -0.80800
O2154       O  0.68174097  0.83259113  0.44387440    -0.80870
Co2155     Co  0.76769557  0.77238471  0.45837087     1.51530
Co2156     Co  0.72899221  0.83745806  0.01937108     1.51690
Co2157     Co  0.74283395  0.84425346  0.44177710     1.51570
Co2158     Co  0.75676180  0.76684407  0.03495758     1.51470
O2159       O  0.74860709  0.80512811  0.48872951    -1.42770
C2160       C  0.75310985  0.70089142  0.48391982     1.08790
C2161       C  0.65394265  0.81565758  0.47237943     1.08880
C2162       C  0.70671299  0.76216907  0.40472834     1.08810
C2163       C  0.69936412  0.77509194  0.08237998     1.08790
C2164       C  0.83022329  0.54458290  0.16877867    -0.27010
C2165       C  0.82660088  0.56536215  0.20170536    -0.15090
C2166       C  0.82030033  0.59822269  0.19135284     0.35540
C2167       C  0.80911837  0.60298017  0.15208794    -0.26460
C2168       C  0.80797160  0.57774377  0.12260401    -0.15700
C2169       C  0.82329973  0.55205656  0.12994893     0.36630
N2170       N  0.83056991  0.03245006  0.09767808    -0.89950
H2171       H  0.84190606  0.02397976  0.17130490     0.17740
H2172       H  0.80040624  0.62552161  0.14505288     0.17730
N2173       N  0.82683542  0.62751087  0.21953833    -0.88980
H2174       H  0.81051387  0.00139609  0.10309465     0.35110
H2175       H  0.86207021  0.03919437  0.09764860     0.40210
H2176       H  0.85262019  0.65500900  0.20824883     0.39830
H2177       H  0.80051796  0.63134236  0.22003009     0.34720
C2178       C  0.84276342  0.54655067  0.31788099    -0.27010
C2179       C  0.82036269  0.55207981  0.28532386    -0.15090
C2180       C  0.78532505  0.55626653  0.29568902     0.35540
C2181       C  0.77752890  0.55926362  0.33627216    -0.26460
C2182       C  0.79898331  0.55194853  0.36725068    -0.15700
C2183       C  0.83161686  0.54484179  0.35800439     0.36630
N2184       N  0.85476014  0.53665070  0.38798435    -0.89950
H2185       H  0.87123870  0.54541085  0.31243929     0.17740
H2186       H  0.75370069  0.56666111  0.34373712     0.17730
N2187       N  0.75574127  0.55556264  0.26768097    -0.88980
H2188       H  0.84950863  0.50769730  0.38437721     0.35110
H2189       H  0.84391236  0.53632446  0.41734697     0.40210
H2190       H  0.75918681  0.54690699  0.23945782     0.39830
H2191       H  0.75739285  0.58342709  0.26582080     0.34720
C2192       C  0.81218749  0.90133474  0.11828361    -0.27010
C2193       C  0.80527848  0.86334419  0.11227830    -0.15090
C2194       C  0.80510609  0.83929280  0.14635068     0.35540
C2195       C  0.80767363  0.85235948  0.18542544    -0.26460
C2196       C  0.82004372  0.89240933  0.19185589    -0.15700
C2197       C  0.82464057  0.91792813  0.15559149     0.36630
N2198       N  0.84843371  0.96130052  0.15423351    -0.89950
H2199       H  0.81298456  0.92007324  0.09240733     0.17740
H2200       H  0.80513985  0.83202287  0.21009061     0.17730
N2201       N  0.80477995  0.80235547  0.14166496    -0.88980
H2202       H  0.84865248  0.97412903  0.12576360     0.35110
H2203       H  0.88014694  0.97025771  0.15819117     0.40210
H2204       H  0.78111331  0.78003094  0.16128365     0.39830
H2205       H  0.83352065  0.80616599  0.15126087     0.34720
C2206       C  0.82704369  0.85266549  0.28641653    -0.27010
C2207       C  0.82189908  0.88608379  0.27493778    -0.15090
C2208       C  0.80994783  0.90211303  0.30871076     0.35540
C2209       C  0.80440257  0.88544041  0.34790783    -0.26460
C2210       C  0.81582810  0.85738125  0.35810072    -0.15700
C2211       C  0.82889400  0.84185556  0.32745470     0.36630
N2212       N  0.84642215  0.81701076  0.33879008    -0.89950
H2213       H  0.83744748  0.83983548  0.26407452     0.17740
H2214       H  0.79330482  0.89699965  0.37144723     0.17730
N2215       N  0.80609420  0.93723682  0.30647534    -0.88980
H2216       H  0.87602867  0.83561793  0.35013954     0.35110
H2217       H  0.84978221  0.80279101  0.31435618     0.40210
H2218       H  0.82829697  0.95861855  0.32461789     0.39830
H2219       H  0.77566458  0.92960603  0.31709902     0.34720
C2220       C  0.80829780  0.95038456  0.22996787    -0.27010
C2221       C  0.84690822  0.95053580  0.23367617    -0.15090
C2222       C  0.88464051  0.48724768  0.23895129     0.35540
C2223       C  0.88139040  0.51980963  0.24790914    -0.26460
C2224       C  0.84375229  0.52029809  0.24276421    -0.15700
C2225       C  0.80608782  0.48421885  0.23630045     0.36630
N2226       N  0.76594658  0.48232851  0.23523392    -0.89950
H2227       H  0.77895941  0.92270199  0.22575310     0.17740
H2228       H  0.90973423  0.54536842  0.25747572     0.17730
N2229       N  0.92646190  0.49362861  0.23201481    -0.88980
H2230       H  0.74546476  0.96069711  0.25755071     0.35110
H2231       H  0.75342366  0.47277441  0.20718061     0.40210
H2232       H  0.94436590  0.00690804  0.25679173     0.39830
H2233       H  0.44089002  0.51397688  0.20686311     0.34720
C2234       C  0.96351705  0.84479367  0.11468087    -0.27010
C2235       C  0.99936134  0.86939693  0.08937625    -0.15090
C2236       C  0.53702393  0.89689475  0.10697028     0.35540
C2237       C  0.53742724  0.90058237  0.14882628    -0.26460
C2238       C  0.99985683  0.88028514  0.17370414    -0.15700
C2239       C  0.96413175  0.84832315  0.15653812     0.36630
N2240       N  0.92759711  0.82007251  0.18072301    -0.89950
H2241       H  0.93576632  0.82027086  0.10245783     0.17740
H2242       H  0.56736423  0.92047369  0.16130897     0.17730
N2243       N  0.57564178  0.91925642  0.08258370    -0.88980
H2244       H  0.92249301  0.79122465  0.17674636     0.35110
H2245       H  0.90154202  0.82145911  0.17036821     0.40210
H2246       H  0.59764302  0.91197354  0.09382914     0.39830
H2247       H  0.58746225  0.94991079  0.08574024     0.34720
C2248       C  0.52681526  0.86659244  0.26725553    -0.27010
C2249       C  0.49039325  0.86393930  0.25011884    -0.15090
C2250       C  0.95195323  0.84043553  0.27359284     0.35540
C2251       C  0.95249562  0.83289723  0.31524620    -0.26460
C2252       C  0.49032825  0.84557908  0.33456928    -0.15700
C2253       C  0.52800665  0.86080413  0.30955498     0.36630
N2254       N  0.56832069  0.87313270  0.32590739    -0.89950
H2255       H  0.55651080  0.88111382  0.24940246     0.17740
H2256       H  0.92279467  0.81692654  0.33277251     0.17730
N2257       N  0.91206933  0.82548656  0.25585175    -0.88980
H2258       H  0.56752679  0.84826167  0.34063415     0.35110
H2259       H  0.57431958  0.89474229  0.34659045     0.40210
H2260       H  0.89664131  0.83879714  0.26883150     0.39830
H2261       H  0.89423881  0.79433419  0.26246568     0.34720
C2262       C  0.94867390  0.91450693  0.25424434    -0.27010
C2263       C  0.95977059  0.90555237  0.21666748    -0.15090
C2264       C  0.93965478  0.91064715  0.18259794     0.35540
C2265       C  0.90424144  0.91394769  0.18847808    -0.26460
C2266       C  0.88759039  0.91400023  0.22710053    -0.15700
C2267       C  0.91380322  0.91917766  0.25979947     0.36630
N2268       N  0.90610066  0.93009989  0.29844744    -0.89950
H2269       H  0.96481207  0.91496644  0.28103222     0.17740
H2270       H  0.89042460  0.91635758  0.16110628     0.17730
N2271       N  0.95477246  0.91427919  0.14156240    -0.88980
H2272       H  0.90416704  0.90883200  0.32047964     0.35110
H2273       H  0.93259628  0.95738208  0.30468069     0.40210
H2274       H  0.46097347  0.94206237  0.12833641     0.39830
H2275       H  0.93013800  0.89231595  0.12584739     0.34720
C2276       C  0.70769928  0.58421286  0.18448623    -0.27010
C2277       C  0.68183213  0.54824307  0.20975102    -0.15090
C2278       C  0.67175373  0.51272517  0.18942459     0.35540
C2279       C  0.67479756  0.51376129  0.14650530    -0.26460
C2280       C  0.68974628  0.54978160  0.12186916    -0.15700
C2281       C  0.70834764  0.58568388  0.14177836     0.36630
N2282       N  0.72872638  0.62392068  0.11883880    -0.89950
H2283       H  0.72681126  0.61257398  0.19695753     0.17740
H2284       H  0.66398941  0.98563258  0.13248205     0.17730
N2285       N  0.65513471  0.97467738  0.21175748    -0.88980
H2286       H  0.74238964  0.64761967  0.13785118     0.35110
H2287       H  0.70513571  0.62663815  0.10425626     0.40210
H2288       H  0.67536188  0.96353003  0.20586270     0.39830
H2289       H  0.62557655  0.95456947  0.20124643     0.34720
C2290       C  0.65544134  0.57139818  0.31947698    -0.27010
C2291       C  0.66264387  0.54720008  0.29216778    -0.15090
C2292       C  0.66995507  0.51767456  0.31173887     0.35540
C2293       C  0.67563453  0.51751846  0.35392485    -0.26460
C2294       C  0.67630993  0.54740824  0.37730667    -0.15700
C2295       C  0.66490336  0.57379830  0.35989718     0.36630
N2296       N  0.66234112  0.60348416  0.38248840    -0.89950
H2297       H  0.64062926  0.58844304  0.31044250     0.17740
H2298       H  0.68268257  0.49561884  0.36765405     0.17730
N2299       N  0.66855363  0.48596238  0.29015152    -0.88980
H2300       H  0.68781356  0.63165687  0.37227828     0.35110
H2301       H  0.66518915  0.59962621  0.41339194     0.40210
H2302       H  0.64330643  0.45873449  0.30269834     0.39830
H2303       H  0.69627906  0.48512356  0.29477557     0.34720
C2304       C  0.54548774  0.94785302  0.26302076    -0.27010
C2305       C  0.53463042  0.93806515  0.22287967    -0.15090
C2306       C  0.55352307  0.47129693  0.19359849     0.35540
C2307       C  0.59088942  0.50558980  0.20176491    -0.26460
C2308       C  0.60643396  0.51153470  0.24083792    -0.15700
C2309       C  0.57880396  0.98441664  0.27245752     0.36630
N2310       N  0.58100159  0.99431935  0.31370020    -0.89950
H2311       H  0.52712294  0.92793216  0.28860684     0.17740
H2312       H  0.60725483  0.52893933  0.17763923     0.17730
N2313       N  0.53517961  0.47148775  0.15606291    -0.88980
H2314       H  0.55304486  0.99379322  0.32222990     0.35110
H2315       H  0.58254656  0.47208603  0.33177009     0.40210
H2316       H  0.52811224  0.49465535  0.15551558     0.39830
H2317       H  0.55785106  0.47866225  0.13262116     0.34720
C2318       C  0.70097590  0.71591799  0.17602614    -0.27010
C2319       C  0.68860794  0.73268772  0.20724571    -0.15090
C2320       C  0.69430539  0.77196013  0.19720965     0.35540
C2321       C  0.70149232  0.78669296  0.15631786    -0.26460
C2322       C  0.70147464  0.76316180  0.12513275    -0.15700
C2323       C  0.70502537  0.72937756  0.13554880     0.36630
N2324       N  0.71150194  0.70762098  0.10516909    -0.89950
H2325       H  0.70213877  0.68866586  0.18069657     0.17740
H2326       H  0.70245062  0.81485385  0.14879794     0.17730
N2327       N  0.68624930  0.79477038  0.22554594    -0.88980
H2328       H  0.68620075  0.67795262  0.10786000     0.35110
H2329       H  0.73944750  0.70744150  0.11069293     0.40210
H2330       H  0.67333573  0.77864597  0.25305676     0.39830
H2331       H  0.66276520  0.79997334  0.21434113     0.34720
C2332       C  0.70938727  0.74846854  0.29405364    -0.27010
C2333       C  0.66913359  0.71610065  0.28734359    -0.15090
C2334       C  0.64472554  0.69271586  0.32372020     0.35540
C2335       C  0.65389527  0.70986537  0.36136182    -0.26460
C2336       C  0.69355207  0.74270881  0.36612439    -0.15700
C2337       C  0.72326064  0.75517313  0.33340705     0.36630
N2338       N  0.76410147  0.76084574  0.34083563    -0.89950
H2339       H  0.73274317  0.76308031  0.26919054     0.17740
H2340       H  0.63277366  0.69443110  0.38768920     0.17730
N2341       N  0.61811379  0.64995139  0.32507256    -0.88980
H2342       H  0.77795669  0.75841651  0.31406934     0.35110
H2343       H  0.76008650  0.73657802  0.35992543     0.40210
H2344       H  0.58997031  0.64201112  0.34149390     0.39830
H2345       H  0.63293141  0.63744085  0.34165132     0.34720
C2346       C  0.61841427  0.62918369  0.22741249    -0.27010
C2347       C  0.65436193  0.66267917  0.24109104    -0.15090
C2348       C  0.68950433  0.65880634  0.25085418     0.35540
C2349       C  0.68718232  0.62236623  0.24804123    -0.26460
C2350       C  0.64958076  0.58727424  0.23885502    -0.15700
C2351       C  0.61354353  0.59121916  0.23101298     0.36630
N2352       N  0.57105243  0.55804935  0.23062421    -0.89950
H2353       H  0.59186687  0.63098065  0.21619586     0.17740
H2354       H  0.71430953  0.62040261  0.25770115     0.17730
N2355       N  0.72874875  0.69235389  0.26139812    -0.88980
H2356       H  0.55283126  0.56038608  0.25384379     0.35110
H2357       H  0.55846690  0.55996703  0.20311371     0.40210
H2358       H  0.75257371  0.69653617  0.24044758     0.39830
H2359       H  0.73604745  0.68523597  0.28982603     0.34720
C2360       C  0.97797756  0.70647256  0.12134727    -0.27010
C2361       C  0.98227116  0.74377978  0.11334418    -0.15090
C2362       C  0.49620563  0.77091886  0.14428908     0.35540
C2363       C  0.49493791  0.75683673  0.18442345    -0.26460
C2364       C  0.99330876  0.72005596  0.19289557    -0.15700
C2365       C  0.99031937  0.69756697  0.15801331     0.36630
N2366       N  0.00888138  0.67264010  0.15553466    -0.89950
H2367       H  0.97282282  0.68738182  0.09661174     0.17740
H2368       H  0.50226391  0.77765340  0.20773707     0.17730
N2369       N  0.51995958  0.81322330  0.13427710    -0.88980
H2370       H  0.03456958  0.68669207  0.13442974     0.35110
H2371       H  0.98730410  0.64568043  0.14358252     0.40210
H2372       H  0.54762335  0.81893936  0.11842894     0.39830
H2373       H  0.53060112  0.82861502  0.16046191     0.34720
C2374       C  0.96956003  0.73834532  0.28618525    -0.27010
C2375       C  0.50549335  0.73893363  0.26917322    -0.15090
C2376       C  0.54335732  0.76054662  0.28974083     0.35540
C2377       C  0.54050645  0.76208935  0.33140639    -0.26460
C2378       C  0.50156354  0.75010412  0.35177235    -0.15700
C2379       C  0.96662831  0.74204002  0.32809420     0.36630
N2380       N  0.92775215  0.73568717  0.34642329    -0.89950
H2381       H  0.94144263  0.72816302  0.26904347     0.17740
H2382       H  0.56932720  0.77481042  0.34780436     0.17730
N2383       N  0.58416467  0.77999061  0.26853592    -0.88980
H2384       H  0.90341572  0.70677959  0.34139194     0.35110
H2385       H  0.91992287  0.75521943  0.33130919     0.40210
H2386       H  0.58544296  0.80230655  0.24828872     0.39830
H2387       H  0.60844922  0.79456104  0.28832963     0.34720
C2388       C  0.57201451  0.72495299  0.20532878    -0.27010
C2389       C  0.54111100  0.70614647  0.23715025    -0.15090
C2390       C  0.54681888  0.68260999  0.26780604     0.35540
C2391       C  0.57976365  0.67588243  0.26302217    -0.26460
C2392       C  0.61336327  0.69901826  0.23538969    -0.15700
C2393       C  0.60348272  0.71541364  0.20120825     0.36630
N2394       N  0.61816153  0.71387251  0.16140225    -0.89950
H2395       H  0.56959998  0.74361831  0.18133622     0.17740
H2396       H  0.57613573  0.64937024  0.27799624     0.17730
N2397       N  0.51884212  0.66438347  0.30304543    -0.88980
H2398       H  0.60782289  0.72703662  0.13953080     0.35110
H2399       H  0.60514289  0.68357083  0.15560829     0.40210
H2400       H  0.02569667  0.68708333  0.32248746     0.39830
H2401       H  0.52463460  0.64370653  0.31907410     0.34720
C2402       C  0.89230735  0.62559558  0.27197867    -0.26800
C2403       C  0.88570165  0.59715218  0.24361901    -0.15090
C2404       C  0.92020347  0.60456343  0.21759694     0.35540
C2405       C  0.95973341  0.63474284  0.22598057    -0.26460
C2406       C  0.96412192  0.66589360  0.24866320    -0.15700
C2407       C  0.93245730  0.65532442  0.27914890     0.36630
N2408       N  0.94295883  0.66033720  0.32071527    -0.89950
H2409       H  0.86745768  0.62263131  0.29247427     0.17740
H2410       H  0.48692713  0.63413882  0.21417631     0.17730
N2411       N  0.91600200  0.58047277  0.18457411    -0.88980
H2412       H  0.94417610  0.63496208  0.33147748     0.35110
H2413       H  0.91785350  0.65871927  0.33780532     0.40210
H2414       H  0.92138222  0.59797218  0.15769332     0.39830
H2415       H  0.43893798  0.57192174  0.18572332     0.34720
C2416       C  0.00107733  0.70877686  0.73700447    -0.03180
C2417       C  0.65701545  0.70328911  0.74275854    -0.03180
C2418       C  0.65078772  0.54777520  0.74594541    -0.03180
C2419       C  0.99609275  0.89605189  0.71512863    -0.03180
C2420       C  0.84342069  0.91015349  0.73210498    -0.03180
C2421       C  0.84252191  0.55911519  0.74300064    -0.03180
O2422       O  0.74347235  0.52005699  0.91453312    -0.80830
O2423       O  0.78509320  0.60158341  0.56923589    -0.80860
O2424       O  0.82099476  0.65264904  0.93347682    -0.80860
O2425       O  0.74928298  0.96988449  0.53308941    -0.80810
O2426       O  0.82571976  0.64187050  0.49795392    -0.80930
O2427       O  0.73281982  0.96502775  0.97094661    -0.80850
O2428       O  0.76126756  0.53508986  0.57803783    -0.80830
O2429       O  0.80344043  0.57235540  0.93360990    -0.80870
C2430       C  0.78221208  0.54679973  0.90809716     1.08860
C2431       C  0.78377005  0.57152207  0.58740751     1.08740
C2432       C  0.84223624  0.66542861  0.96503038     1.08880
C2433       C  0.74439079  0.95166717  0.00099676     1.08760
O2434       O  0.66024100  0.95723874  0.94766905    -0.80830
O2435       O  0.76626626  0.65658151  0.52927596    -0.80910
O2436       O  0.73777255  0.58478430  0.91245147    -0.80840
O2437       O  0.67770509  0.51648098  0.56034380    -0.80820
O2438       O  0.70490992  0.58028593  0.55190768    -0.80880
O2439       O  0.68261318  0.53596373  0.94768385    -0.80840
O2440       O  0.66361790  0.95311146  0.51473165    -0.80800
O2441       O  0.74759199  0.63544249  0.96942469    -0.80870
Co2442     Co  0.70847565  0.50392159  0.96510516     1.51530
Co2443     Co  0.76032380  0.60433496  0.51946201     1.51690
Co2444     Co  0.77651291  0.60022583  0.95790151     1.51570
Co2445     Co  0.71661881  0.49905684  0.54284586     1.51470
O2446       O  0.74781828  0.54858307  0.99765105    -1.42770
C2447       C  0.64402411  0.93832795  0.98194072     1.08790
C2448       C  0.75525661  0.66261423  0.99480384     1.08880
C2449       C  0.69896020  0.55743885  0.91495625     1.08810
C2450       C  0.69058652  0.54912796  0.57608125     1.08790
O2451       O  0.51476168  0.85859744  0.90273179    -0.80830
O2452       O  0.97517727  0.84194045  0.52554530    -0.80860
O2453       O  0.91090194  0.79979645  0.96520385    -0.80860
O2454       O  0.59882768  0.86872927  0.50706509    -0.80810
O2455       O  0.89402325  0.77699177  0.52810705    -0.80930
O2456       O  0.57589940  0.89236318  0.95877746    -0.80850
O2457       O  0.52754827  0.83846744  0.55427089    -0.80830
O2458       O  0.95767675  0.80158782  0.89302741    -0.80870
C2459       C  0.48741566  0.83557545  0.87918188     1.08860
C2460       C  0.00236640  0.85174214  0.55242767     1.08740
C2461       C  0.88467187  0.79011037  0.99685970     1.08880
C2462       C  0.60359578  0.89829109  0.98379829     1.08760
O2463       O  0.60358822  0.83453312  0.94471537    -0.80830
O2464       O  0.90938606  0.72292380  0.49322643    -0.80910
O2465       O  0.97461905  0.74477844  0.92050881    -0.80840
O2466       O  0.50578153  0.75718631  0.54401851    -0.80820
O2467       O  0.95551116  0.76858110  0.56210764    -0.80880
O2468       O  0.53471123  0.79836518  0.89574254    -0.80840
O2469       O  0.57868142  0.78713709  0.49336500    -0.80800
O2470       O  0.89365264  0.73042851  0.93151925    -0.80870
Co2471     Co  0.55279720  0.84284222  0.92959615     1.51530
Co2472     Co  0.94799857  0.78634436  0.50681154     1.51690
Co2473     Co  0.94840821  0.77288724  0.94711271     1.51570
Co2474     Co  0.54842372  0.81131366  0.52089042     1.51470
O2475       O  0.50667265  0.80618867  0.97527439    -1.42770
C2476       C  0.60928323  0.81068678  0.96888728     1.08790
C2477       C  0.88362887  0.70758728  0.96350767     1.08880
C2478       C  0.50412698  0.76323975  0.89293874     1.08810
C2479       C  0.98035192  0.75605015  0.57101136     1.08790
O2480       O  0.79312432  0.80282761  0.90608159    -0.80830
O2481       O  0.78599141  0.86566700  0.54292281    -0.80860
O2482       O  0.75981437  0.89990354  0.97084470    -0.80860
O2483       O  0.81616606  0.77404377  0.52740828    -0.80810
O2484       O  0.72325091  0.88395075  0.52990438    -0.80930
O2485       O  0.83040318  0.80331599  0.96874791    -0.80850
O2486       O  0.78299304  0.81081944  0.57052883    -0.80830
O2487       O  0.80237542  0.85950754  0.92820747    -0.80870
C2488       C  0.80696995  0.84028721  0.90017707     1.08860
C2489       C  0.79336208  0.84713492  0.57188808     1.08740
C2490       C  0.74343425  0.91035609  0.00064344     1.08880
C2491       C  0.84281704  0.79071226  0.99784248     1.08760
O2492       O  0.77328465  0.72432676  0.95241447    -0.80830
O2493       O  0.66637686  0.80698712  0.50480500    -0.80910
O2494       O  0.72145847  0.80007368  0.90304578    -0.80840
O2495       O  0.69983018  0.75468140  0.55369316    -0.80820
O2496       O  0.70694582  0.81043692  0.57387895    -0.80880
O2497       O  0.71075272  0.74383239  0.93575921    -0.80840
O2498       O  0.73308008  0.71223181  0.50792323    -0.80800
O2499       O  0.68174096  0.83259165  0.94387456    -0.80870
Co2500     Co  0.76769566  0.77238532  0.95837106     1.51530
Co2501     Co  0.72899218  0.83745763  0.51937079     1.51690
Co2502     Co  0.74283392  0.84425398  0.94177725     1.51570
Co2503     Co  0.75676225  0.76684394  0.53495756     1.51470
O2504       O  0.74860705  0.80512861  0.98872965    -1.42770
C2505       C  0.75310955  0.70089181  0.98391988     1.08790
C2506       C  0.65394265  0.81565810  0.97237958     1.08880
C2507       C  0.70671315  0.76216965  0.90472858     1.08810
C2508       C  0.69936459  0.77509174  0.58237998     1.08790
C2509       C  0.83022163  0.54458157  0.66877869    -0.27010
C2510       C  0.82659843  0.56536055  0.70170528    -0.15090
C2511       C  0.82029815  0.59822124  0.69135253     0.35540
C2512       C  0.80911818  0.60297974  0.65208707    -0.26460
C2513       C  0.80797395  0.57774482  0.62260269    -0.15700
C2514       C  0.82330202  0.55205769  0.62994827     0.36630
N2515       N  0.83057059  0.03245065  0.59767795    -0.89950
H2516       H  0.84190745  0.02398096  0.67130481     0.17740
H2517       H  0.80040565  0.62552088  0.64505185     0.17730
N2518       N  0.82683166  0.62750864  0.71953841    -0.88980
H2519       H  0.81051454  0.00139670  0.60309453     0.35110
H2520       H  0.86207091  0.03919501  0.59764844     0.40210
H2521       H  0.85261673  0.65500708  0.70824999     0.39830
H2522       H  0.80051405  0.63133991  0.72002907     0.34720
C2523       C  0.84276212  0.54655085  0.81788105    -0.27010
C2524       C  0.82036090  0.55207924  0.78532395    -0.15090
C2525       C  0.78532320  0.55626587  0.79568919     0.35540
C2526       C  0.77752745  0.55926362  0.83627231    -0.26460
C2527       C  0.79898257  0.55194951  0.86725083    -0.15700
C2528       C  0.83161625  0.54484294  0.85800449     0.36630
N2529       N  0.85476029  0.53665291  0.88798443    -0.89950
H2530       H  0.87123739  0.54541105  0.81243928     0.17740
H2531       H  0.75369891  0.56666070  0.84373730     0.17730
N2532       N  0.75573890  0.55556110  0.76768128    -0.88980
H2533       H  0.84950882  0.50769939  0.88437811     0.35110
H2534       H  0.84391318  0.53632755  0.91734708     0.40210
H2535       H  0.75918460  0.54690545  0.73945816     0.39830
H2536       H  0.75738989  0.58342528  0.76582093     0.34720
C2537       C  0.81218661  0.90133464  0.61828330    -0.27010
C2538       C  0.80527824  0.86334430  0.61227795    -0.15090
C2539       C  0.80510592  0.83929300  0.64635036     0.35540
C2540       C  0.80767258  0.85235937  0.68542516    -0.26460
C2541       C  0.82004232  0.89240913  0.69185569    -0.15700
C2542       C  0.82463934  0.91792798  0.65559127     0.36630
N2543       N  0.84843254  0.96130036  0.65423334    -0.89950
H2544       H  0.81298364  0.92007309  0.59240700     0.17740
H2545       H  0.80513870  0.83202273  0.71009033     0.17730
N2546       N  0.80478080  0.80235615  0.64166464    -0.88980
H2547       H  0.84865182  0.97412887  0.62576328     0.35110
H2548       H  0.88014568  0.97025749  0.65819145     0.40210
H2549       H  0.78111429  0.78003127  0.66128316     0.39830
H2550       H  0.83352164  0.80616727  0.65126081     0.34720
C2551       C  0.82704207  0.85266507  0.78641633    -0.27010
C2552       C  0.82189724  0.88608324  0.77493753    -0.15090
C2553       C  0.80994562  0.90211224  0.80871044     0.35540
C2554       C  0.80440130  0.88544021  0.84790767    -0.26460
C2555       C  0.81582726  0.85738136  0.85810057    -0.15700
C2556       C  0.82889272  0.84185537  0.82745449     0.36630
N2557       N  0.84642165  0.81701122  0.83878975    -0.89950
H2558       H  0.83744600  0.83983513  0.76407436     0.17740
H2559       H  0.79330356  0.89699943  0.87144710     0.17730
N2560       N  0.80609007  0.93723495  0.80647463    -0.88980
H2561       H  0.87602862  0.83561898  0.85013808     0.35110
H2562       H  0.84978095  0.80279086  0.81435603     0.40210
H2563       H  0.82829247  0.95861749  0.82461681     0.39830
H2564       H  0.77566018  0.92960308  0.81709853     0.34720
C2565       C  0.80829711  0.95038501  0.72996743    -0.27010
C2566       C  0.84690717  0.95053571  0.73367618    -0.15090
C2567       C  0.88464040  0.48724824  0.73895128     0.35540
C2568       C  0.88138938  0.51980963  0.74790940    -0.26460
C2569       C  0.84375080  0.52029731  0.74276456    -0.15700
C2570       C  0.80608669  0.48421763  0.73630111     0.36630
N2571       N  0.76594506  0.48232653  0.73523487    -0.89950
H2572       H  0.77895860  0.92270267  0.72575232     0.17740
H2573       H  0.90973289  0.54536864  0.75747615     0.17730
N2574       N  0.92646211  0.49362984  0.73201530    -0.88980
H2575       H  0.74546434  0.96069810  0.75754989     0.35110
H2576       H  0.75342200  0.47277214  0.70718167     0.40210
H2577       H  0.94436507  0.00690744  0.75679176     0.39830
H2578       H  0.44088915  0.51397548  0.70686188     0.34720
C2579       C  0.96351694  0.84479375  0.61468048    -0.27010
C2580       C  0.99936156  0.86939718  0.58937631    -0.15090
C2581       C  0.53702393  0.89689460  0.60697028     0.35540
C2582       C  0.53742721  0.90058238  0.64882625    -0.26460
C2583       C  0.99985578  0.88028498  0.67370411    -0.15700
C2584       C  0.96413110  0.84832294  0.65653773     0.36630
N2585       N  0.92759639  0.82007192  0.68072232    -0.89950
H2586       H  0.93576647  0.82027093  0.60245713     0.17740
H2587       H  0.56736422  0.92047372  0.66130893     0.17730
N2588       N  0.57564179  0.91925621  0.58258370    -0.88980
H2589       H  0.92249267  0.79122421  0.67674556     0.35110
H2590       H  0.90154125  0.82145830  0.67036734     0.40210
H2591       H  0.59764303  0.91197339  0.59382924     0.39830
H2592       H  0.58746223  0.94991059  0.58574012     0.34720
C2593       C  0.52681509  0.86659236  0.76725559    -0.27010
C2594       C  0.49039316  0.86393936  0.75011887    -0.15090
C2595       C  0.95195143  0.84043413  0.77359236     0.35540
C2596       C  0.95249397  0.83289567  0.81524568    -0.26460
C2597       C  0.49032809  0.84557922  0.83456934    -0.15700
C2598       C  0.52800648  0.86080413  0.80955505     0.36630
N2599       N  0.56832052  0.87313275  0.82590747    -0.89950
H2600       H  0.55651064  0.88111363  0.74940252     0.17740
H2601       H  0.92279309  0.81692502  0.83277213     0.17730
N2602       N  0.91206752  0.82548510  0.75585124    -0.88980
H2603       H  0.56752666  0.84826177  0.84063428     0.35110
H2604       H  0.57431941  0.89474239  0.84659048     0.40210
H2605       H  0.89663948  0.83879574  0.76883079     0.39830
H2606       H  0.89423699  0.79433273  0.76246523     0.34720
C2607       C  0.94867181  0.91450558  0.75424447    -0.27010
C2608       C  0.95976860  0.90555119  0.71666754    -0.15090
C2609       C  0.93965297  0.91064621  0.68259798     0.35540
C2610       C  0.90423988  0.91394715  0.68847807    -0.26460
C2611       C  0.88758876  0.91399964  0.72710051    -0.15700
C2612       C  0.91380141  0.91917675  0.75979951     0.36630
N2613       N  0.90609903  0.93009925  0.79844742    -0.89950
H2614       H  0.96480988  0.91496490  0.78103237     0.17740
H2615       H  0.89042329  0.91635739  0.66110625     0.17730
N2616       N  0.95477059  0.91427811  0.64156243    -0.88980
H2617       H  0.90416535  0.90883142  0.82047972     0.35110
H2618       H  0.93259482  0.95738136  0.80468056     0.40210
H2619       H  0.46097341  0.94206235  0.62833645     0.39830
H2620       H  0.93013607  0.89231486  0.62584748     0.34720
C2621       C  0.70769633  0.58421197  0.68448713    -0.27010
C2622       C  0.68182940  0.54824231  0.70975230    -0.15090
C2623       C  0.67175110  0.51272416  0.68942637     0.35540
C2624       C  0.67479611  0.51375993  0.64650717    -0.26460
C2625       C  0.68974542  0.54978000  0.62187045    -0.15700
C2626       C  0.70834581  0.58568247  0.64177922     0.36630
N2627       N  0.72872466  0.62391900  0.61883917    -0.89950
H2628       H  0.72680745  0.61257346  0.69695799     0.17740
H2629       H  0.66398961  0.98563247  0.63248243     0.17730
N2630       N  0.65513485  0.97467759  0.71175781    -0.88980
H2631       H  0.74238733  0.64761828  0.63785126     0.35110
H2632       H  0.70513415  0.62663605  0.60425577     0.40210
H2633       H  0.67536202  0.96353020  0.70586314     0.39830
H2634       H  0.62557670  0.95456964  0.70124676     0.34720
C2635       C  0.65543834  0.57139656  0.81947894    -0.27010
C2636       C  0.66264142  0.54719899  0.79216944    -0.15090
C2637       C  0.66995301  0.51767358  0.81174024     0.35540
C2638       C  0.67563277  0.51751742  0.85392612    -0.26460
C2639       C  0.67630755  0.54740671  0.87730823    -0.15700
C2640       C  0.66490000  0.57379619  0.85989925     0.36630
N2641       N  0.66233671  0.60348114  0.88249112    -0.89950
H2642       H  0.64062609  0.58844128  0.81044453     0.17740
H2643       H  0.68268145  0.49561813  0.86765504     0.17730
N2644       N  0.66855172  0.48596157  0.79015274    -0.88980
H2645       H  0.68780990  0.63165405  0.87228271     0.35110
H2646       H  0.66518295  0.59962166  0.91339479     0.40210
H2647       H  0.64330462  0.45873360  0.80269953     0.39830
H2648       H  0.69627721  0.48512283  0.79477668     0.34720
C2649       C  0.54548806  0.94785310  0.76302077    -0.27010
C2650       C  0.53463063  0.93806524  0.72287970    -0.15090
C2651       C  0.55352108  0.47129699  0.69359948     0.35540
C2652       C  0.59088695  0.50559010  0.70176640    -0.26460
C2653       C  0.60643142  0.51153448  0.74083943    -0.15700
C2654       C  0.57880418  0.98441679  0.77245754     0.36630
N2655       N  0.58100179  0.99431948  0.81370023    -0.89950
H2656       H  0.52712333  0.92793224  0.78860687     0.17740
H2657       H  0.60725240  0.52893989  0.67764096     0.17730
N2658       N  0.53517795  0.47148782  0.65606371    -0.88980
H2659       H  0.55304499  0.99379321  0.82222995     0.35110
H2660       H  0.58254454  0.47208415  0.83177098     0.40210
H2661       H  0.52811008  0.49465511  0.65551641     0.39830
H2662       H  0.55784974  0.47866279  0.63262217     0.34720
C2663       C  0.70097714  0.71591858  0.67602652    -0.27010
C2664       C  0.68860942  0.73268863  0.70724592    -0.15090
C2665       C  0.69430714  0.77196109  0.69720962     0.35540
C2666       C  0.70149366  0.78669352  0.65631772    -0.26460
C2667       C  0.70147557  0.76316200  0.62513278    -0.15700
C2668       C  0.70502632  0.72937779  0.63554907     0.36630
N2669       N  0.71150270  0.70762095  0.60516951    -0.89950
H2670       H  0.70214002  0.68866647  0.68069728     0.17740
H2671       H  0.70245203  0.81485442  0.64879763     0.17730
N2672       N  0.68625174  0.79477182  0.72554585    -0.88980
H2673       H  0.68620157  0.67795257  0.60786076     0.35110
H2674       H  0.73944833  0.70744158  0.61069326     0.40210
H2675       H  0.67333899  0.77864794  0.75305704     0.39830
H2676       H  0.66276732  0.79997454  0.71434148     0.34720
C2677       C  0.70938897  0.74846908  0.79405414    -0.27010
C2678       C  0.66913501  0.71610173  0.78734374    -0.15090
C2679       C  0.64472649  0.69271699  0.82372013     0.35540
C2680       C  0.65389572  0.70986655  0.86136167    -0.26460
C2681       C  0.69355270  0.74270951  0.86612462    -0.15700
C2682       C  0.72326180  0.75517327  0.83340780     0.36630
N2683       N  0.76410183  0.76084414  0.84083721    -0.89950
H2684       H  0.73274520  0.76308050  0.76919125     0.17740
H2685       H  0.63277372  0.69443243  0.88768885     0.17730
N2686       N  0.61811577  0.64995240  0.82507257    -0.88980
H2687       H  0.77795674  0.75841365  0.81407137     0.35110
H2688       H  0.76008554  0.73657631  0.85992768     0.40210
H2689       H  0.58997224  0.64201127  0.84149427     0.39830
H2690       H  0.63293445  0.63744276  0.84165097     0.34720
C2691       C  0.61841425  0.62918460  0.72741324    -0.27010
C2692       C  0.65436242  0.66267996  0.74109134    -0.15090
C2693       C  0.68950421  0.65880633  0.75085509     0.35540
C2694       C  0.68718101  0.62236558  0.74804353    -0.26460
C2695       C  0.64957916  0.58727401  0.73885712    -0.15700
C2696       C  0.61354249  0.59121967  0.73101477     0.36630
N2697       N  0.57105102  0.55805032  0.73062689    -0.89950
H2698       H  0.59186720  0.63098202  0.71619635     0.17740
H2699       H  0.71430793  0.62040139  0.75770338     0.17730
N2700       N  0.72874918  0.69235363  0.76139834    -0.88980
H2701       H  0.55283049  0.56038814  0.75384634     0.35110
H2702       H  0.55846527  0.55996759  0.70311640     0.40210
H2703       H  0.75257378  0.69653472  0.74044799     0.39830
H2704       H  0.73604770  0.68523612  0.78982652     0.34720
C2705       C  0.97797775  0.70647231  0.62134696    -0.27010
C2706       C  0.98227131  0.74377956  0.61334433    -0.15090
C2707       C  0.49620562  0.77091880  0.64428907     0.35540
C2708       C  0.49493798  0.75683685  0.68442347    -0.26460
C2709       C  0.99330789  0.72005461  0.69289565    -0.15700
C2710       C  0.99031882  0.69756605  0.65801309     0.36630
N2711       N  0.00888015  0.67263861  0.65553449    -0.89950
H2712       H  0.97282337  0.68738196  0.59661116     0.17740
H2713       H  0.50226375  0.77765356  0.70773701     0.17730
N2714       N  0.51995952  0.81322321  0.63427697    -0.88980
H2715       H  0.03456862  0.68669039  0.63442984     0.35110
H2716       H  0.98730264  0.64567919  0.64358207     0.40210
H2717       H  0.54762338  0.81893927  0.61842899     0.39830
H2718       H  0.53060092  0.82861502  0.66046174     0.34720
C2719       C  0.96955968  0.73834384  0.78618549    -0.27010
C2720       C  0.50549377  0.73893438  0.76917325    -0.15090
C2721       C  0.54335767  0.76054780  0.78974084     0.35540
C2722       C  0.54050669  0.76209038  0.83140639    -0.26460
C2723       C  0.50156367  0.75010475  0.85177234    -0.15700
C2724       C  0.96662747  0.74203816  0.82809447     0.36630
N2725       N  0.92775127  0.73568562  0.84642312    -0.89950
H2726       H  0.94144262  0.72816235  0.76904333     0.17740
H2727       H  0.56932744  0.77481161  0.84780437     0.17730
N2728       N  0.58416504  0.77999219  0.76853592    -0.88980
H2729       H  0.90341472  0.70677820  0.84139141     0.35110
H2730       H  0.91992249  0.75521823  0.83130896     0.40210
H2731       H  0.58544303  0.80230799  0.74828874     0.39830
H2732       H  0.60844952  0.79456283  0.78832965     0.34720
C2733       C  0.57201569  0.72495444  0.70532906    -0.27010
C2734       C  0.54111221  0.70614784  0.73715055    -0.15090
C2735       C  0.54682047  0.68261185  0.76780654     0.35540
C2736       C  0.57976530  0.67588445  0.76302272    -0.26460
C2737       C  0.61336479  0.69902004  0.73539004    -0.15700
C2738       C  0.60348417  0.71541539  0.70120861     0.36630
N2739       N  0.61816285  0.71387410  0.66140262    -0.89950
H2740       H  0.56960087  0.74361949  0.68133639     0.17740
H2741       H  0.57613751  0.64937251  0.77799715     0.17730
N2742       N  0.51884397  0.66438553  0.80304612    -0.88980
H2743       H  0.60782425  0.72703824  0.63953115     0.35110
H2744       H  0.60514408  0.68357239  0.65560871     0.40210
H2745       H  0.02569352  0.68707804  0.82248628     0.39830
H2746       H  0.52463624  0.64370836  0.81907461     0.34720
C2747       C  0.89230550  0.62559498  0.77197773    -0.26800
C2748       C  0.88569947  0.59715137  0.74361824    -0.15090
C2749       C  0.92020115  0.60456237  0.71759601     0.35540
C2750       C  0.95973126  0.63474122  0.72597986    -0.26460
C2751       C  0.96412034  0.66589193  0.74866281    -0.15700
C2752       C  0.93245569  0.65532310  0.77914836     0.36630
N2753       N  0.94295712  0.66033505  0.82071479    -0.89950
H2754       H  0.86745591  0.62263105  0.79247323     0.17740
H2755       H  0.48692871  0.63413968  0.71417670     0.17730
N2756       N  0.91599950  0.58047171  0.68457313    -0.88980
H2757       H  0.94417398  0.63495958  0.83147649     0.35110
H2758       H  0.91785195  0.65871727  0.83780502     0.40210
H2759       H  0.92138016  0.59797134  0.65769240     0.39830
H2760       H  0.43893941  0.57192230  0.68572363     0.34720
loop_ 
_geom_bond_atom_site_label_1 
_geom_bond_atom_site_label_2 
_geom_bond_distance 
_geom_bond_site_symmetry_2 
_ccdc_geom_bond_type 
C1          C294   1.578       .  S
C1          C336   1.541       .  S
C1         C1685   1.568       .  S
C1         C1699   1.518       .  S
C2          C249   1.583       .  S
C2          C263   1.584       .  S
C2          C277   1.521       .  S
C2          C322   1.546       .  S
C3          C207   1.631       .  S
C3          C221   1.605       .  S
C3          C238   1.538       .  S
C3          C280   1.550       .  S
C4          C168   1.562       .  S
C4          C193   1.546       .  S
C4         C1559   1.584       .  S
C4         C1615   1.560       .  S
C5          C126   1.591       .  S
C5          C137   1.610       .  S
C5          C151   1.499       .  S
C5          C196   1.551       .  S
C6           C95   1.554       .  S
C6          C109   1.550       .  S
C6          C154   1.519       .  S
C6          C333   1.522       .  S
O7           C15   1.270       .  A
O7          Co27   1.964       .  S
O8           C16   1.257       .  A
O8          Co28   1.923       .  S
O9           C17   1.281       .  A
O9          Co29   1.965       .  S
O10         C363   1.271       .  A
O10        Co720   2.041       .  S
O11         C362   1.306       .  A
O11         Co28   2.162   1_556  S
O12          C18   1.274       .  A
O12        Co717   2.096       .  S
O13          C16   1.279       .  A
O13         Co30   1.978   1_545  S
O14          C15   1.276       .  A
O14         Co29   1.973       .  S
C15         C112   1.440       .  S
C16          C98   1.435       .  S
C17         O356   1.306       .  A
C17          C62   1.564       .  S
C18         O355   1.271       .  A
C18          C75   1.574       .  S
O19          C32   1.278       .  A
O19        Co717   1.906       .  S
O20         C378   1.269   1_554  A
O20         Co28   1.957       .  S
O21          C34   1.270       .  A
O21         Co29   1.990       .  S
O22          C35   1.247       .  A
O22         Co30   1.945   1_545  S
O23          C35   1.270       .  A
O23         Co28   2.014       .  S
O24          C34   1.269       .  A
O24         Co27   1.969       .  S
O25         C377   1.305   1_554  A
O25        Co720   2.132       .  S
O26          C33   1.299       .  A
O26         Co29   2.141       .  S
Co27        O702   2.096   1_545  S
Co27        O709   1.906   1_545  S
Co27         O31   1.988       .  S
Co28        O376   2.127   1_554  S
Co29         O31   2.093       .  S
Co30        O700   2.041       .  S
Co30        O715   2.132       .  S
Co30        O376   2.156   1_564  S
O31        Co373   2.127       .  S
O31        Co375   2.156   1_545  S
C32         O370   1.305       .  A
C32          C47   1.504       .  S
C33         O365   1.269       .  A
C33          C90   1.541       .  S
C34         C224   1.471       .  S
C35         C210   1.522       .  S
O36          C44   1.267   1_455  A
O36         Co56   1.985       .  S
O37          C45   1.272       .  A
O37         Co57   1.994       .  S
O38          C46   1.314       .  A
O38         Co58   2.186       .  S
O39         C392   1.277   1_554  A
O39         Co59   2.065       .  S
O40         C391   1.258   1_554  A
O40         Co57   1.932       .  S
O41          C47   1.260       .  A
O41         Co56   1.971       .  S
O42        C1425   1.259       .  A
O42         Co59   1.948       .  S
O43        C1424   1.263       .  A
O43         Co58   1.990       .  S
C44        O1423   1.263       .  A
C44         C182   1.500       .  S
C45        O1422   1.259       .  A
C45         C165   1.461       .  S
C46         O385   1.258       .  A
C46          C76   1.542       .  S
C47         O384   1.277       .  A
O48          C61   1.287       .  A
O48         Co56   2.103       .  S
O49         C407   1.320       .  A
O49         Co57   2.197   1_556  S
O50        C1443   1.278       .  A
O50         Co58   1.995       .  S
O51        C1444   1.262   1_455  A
O51         Co59   1.972       .  S
O52          C64   1.258       .  A
O52         Co57   1.999       .  S
O53          C63   1.259       .  A
O53         Co56   1.928       .  S
O54         C406   1.267       .  A
O54         Co59   2.003   1_556  S
O55          C62   1.266       .  A
O55         Co58   1.945       .  S
Co56         O60   2.105       .  S
Co57       O1785   2.114   1_554  S
Co58       O1440   2.123       .  S
Co59        O405   2.116   1_554  S
O60       Co1782   2.114   1_455  S
O60       Co1438   2.123   1_455  S
O60        Co404   2.116       .  S
C61         O399   1.267       .  A
C61          C91   1.553       .  S
C62         O394   1.320       .  A
C63        O1430   1.278   1_455  A
C63         C308   1.469       .  S
C64        O1431   1.262       .  A
C64         C291   1.474       .  S
O65          C73   1.268       .  A
O65         Co85   1.972       .  S
O66          C74   1.281       .  A
O66         Co86   2.002       .  S
O67          C75   1.327       .  A
O67         Co87   2.191       .  S
O68         C421   1.264   1_554  A
O68         Co88   2.056       .  S
O69         C420   1.281       .  A
O69         Co86   1.952       .  S
O70          C76   1.251       .  A
O70         Co85   2.030       .  S
O71          C74   1.255       .  A
O71         Co88   1.948       .  S
O72          C73   1.277       .  A
O72         Co87   1.985       .  S
C73         C140   1.472       .  S
C74         C123   1.487       .  S
C75         O414   1.281       .  A
C76         O413   1.264       .  A
O77          C90   1.288       .  A
O77         Co85   1.981       .  S
O78         C436   1.270   1_554  A
O78         Co86   2.062       .  S
O79          C92   1.274       .  A
O79         Co87   2.020       .  S
O80          C93   1.270       .  A
O80         Co88   1.970       .  S
O81          C93   1.260       .  A
O81         Co86   1.980       .  S
O82          C92   1.273       .  A
O82         Co85   1.987       .  S
O83         C435   1.303   1_554  A
O83         Co88   2.090       .  S
O84          C91   1.261       .  A
O84         Co87   2.045       .  S
Co85         O89   2.020       .  S
Co86        O434   2.025   1_554  S
Co87         O89   2.200       .  S
Co88        O434   2.202   1_554  S
O89        Co431   2.025       .  S
O89        Co433   2.202       .  S
C90         O428   1.303       .  A
C91         O423   1.270       .  A
C92         C266   1.481       .  S
C93         C252   1.485       .  S
C94          C95   1.429       .  A
C94          C99   1.363       .  A
C94         H791   1.075       .  S
C95          C96   1.423       .  A
C96          C97   1.404       .  A
C96         N103   1.431       .  S
C97          C98   1.400       .  A
C97         H102   1.082       .  S
C98          C99   1.375       .  A
C99         N790   1.436       .  S
N100        C789   1.436       .  S
N100        H104   1.045       .  S
N100        H105   1.046       .  S
H101        C784   1.075       .  S
N103        H106   1.046       .  S
N103        H107   1.045       .  S
C108        C109   1.439       .  A
C108        C113   1.374       .  A
C108        H115   1.077       .  S
C109        C110   1.408       .  A
C110        C111   1.394       .  A
C110        N117   1.431       .  S
C111        C112   1.406       .  A
C111        H116   1.073       .  S
C112        C113   1.385       .  A
C113        N114   1.441       .  S
N114        H118   1.046       .  S
N114        H119   1.043       .  S
N117        H120   1.036       .  S
N117        H121   1.043       .  S
C122        C123   1.380       .  A
C122        C127   1.399       .  A
C122        H129   1.084       .  S
C123        C124   1.423       .  A
C124        C125   1.403       .  A
C124        N131   1.433       .  S
C125        C126   1.402       .  A
C125        H130   1.073       .  S
C126        C127   1.466       .  A
C127        N128   1.442       .  S
N128        H132   1.042       .  S
N128        H133   1.044       .  S
N131        H134   1.042       .  S
N131        H135   1.044       .  S
C136        C137   1.426       .  A
C136        C141   1.417       .  A
C136        H143   1.075       .  S
C137        C138   1.467       .  A
C138        C139   1.386       .  A
C138        N145   1.427       .  S
C139        C140   1.371       .  A
C139        H144   1.086       .  S
C140        C141   1.397       .  A
C141        N142   1.435       .  S
N142        H146   1.044       .  S
N142        H147   1.040       .  S
N145        H148   1.047       .  S
N145        H149   1.046       .  S
C150        C151   1.417       .  A
C150        C845   1.372       .  A
C150        H157   1.085       .  S
C151        C842   1.416       .  A
C152        C153   1.364   1_565  A
C152        C841   1.416       .  A
C152        N159   1.434       .  S
C153        C154   1.400       .  A
C153        H158   1.078       .  S
C154        C155   1.411   1_545  A
C155        C840   1.372       .  A
C155        N156   1.434       .  S
N156        H161   1.046       .  S
N156        H850   1.045       .  S
N159        H852   1.045   1_565  S
N159       H1543   1.045   1_565  S
H160        N846   1.045       .  S
H162        N849   1.045       .  S
H163       N1539   1.045   1_545  S
C164        C165   1.397       .  A
C164        C169   1.403       .  A
C164        H171   1.085       .  S
C165       C1546   1.409       .  A
C166        C167   1.404       .  A
C166       C1545   1.409   1_455  A
C166        N173   1.434       .  S
C167       C1548   1.412   1_455  A
C167        H172   1.078       .  S
C168        C169   1.424       .  A
C168       C1547   1.412       .  A
C169        N170   1.422       .  S
N170        H174   1.046       .  S
N170        H175   1.044       .  S
N173        H176   1.046       .  S
N173        H177   1.045       .  S
C178        C179   1.416   1_455  A
C178        C183   1.416       .  A
C178        H185   1.084       .  S
C179       C1384   1.584       .  S
C179       C1560   1.418       .  A
C180        C181   1.401       .  A
C180       C1559   1.418       .  A
C180        N187   1.424       .  S
C181       C1562   1.396       .  A
C181        H186   1.079       .  S
C182        C183   1.424   1_655  A
C182       C1561   1.396       .  A
C183        N184   1.430       .  S
N184        H188   1.040       .  S
N184        H189   1.045       .  S
N187        H190   1.035       .  S
N187        H191   1.046       .  S
C192        C193   1.416       .  A
C192        C197   1.385       .  A
C192        H199   1.073       .  S
C193        C194   1.419       .  A
C194        C195   1.375       .  A
C194        N201   1.434       .  S
C195        C196   1.410       .  A
C195        H200   1.070       .  S
C196        C197   1.416       .  A
C197        N198   1.436       .  S
N198        H202   1.044       .  S
N198        H203   1.045       .  S
N201        H205   1.046       .  S
N201       H1584   1.046       .  S
H204       N1581   1.046       .  S
C206        C207   1.433       .  A
C206        C211   1.415       .  A
C206        H213   1.068       .  S
C207        C208   1.434       .  A
C208        C209   1.424       .  A
C208        N905   1.430   1_545  S
C209        C210   1.414       .  A
C209        H904   1.083   1_545  S
C210        C211   1.405       .  A
C211        N212   1.437       .  S
N212        H216   1.045       .  S
N212        H217   1.045       .  S
H214        C899   1.083       .  S
N215        C898   1.430       .  S
N215        H218   1.045       .  S
N215        H219   1.044       .  S
C220        C221   1.443       .  A
C220        C225   1.388       .  A
C220        H227   1.076       .  S
C221        C222   1.423       .  A
C222        C223   1.420       .  A
C222        N229   1.426   1_545  S
C223        C224   1.411       .  A
C223        H228   1.082   1_545  S
C224        C225   1.385       .  A
C225        N226   1.439       .  S
N226        H230   1.046       .  S
N226        H231   1.044       .  S
N229        H232   1.046       .  S
N229        H233   1.045       .  S
C234        C235   1.413       .  A
C234        C239   1.378       .  A
C234        H241   1.075       .  S
C235       C1384   1.560   1_455  S
C235        C926   1.421       .  A
C236        C237   1.386   1_565  A
C236        C925   1.421       .  A
C236        N243   1.428       .  S
C237        C238   1.409       .  A
C237        H242   1.085       .  S
C238        C929   1.415   1_545  A
C239        C928   1.415       .  A
C239        N240   1.433       .  S
N240        H244   1.046       .  S
N240        H935   1.046       .  S
N243        H246   1.046       .  S
N243        H247   1.046       .  S
H245        N930   1.046       .  S
C248        C249   1.428       .  A
C248        C253   1.393       .  A
C248        H255   1.075       .  S
C249        C250   1.439       .  A
C250        C251   1.412       .  A
C250        N257   1.441       .  S
C251        C252   1.410       .  A
C251        H256   1.084       .  S
C252        C253   1.399       .  A
C253        N254   1.432       .  S
N254        H258   1.045       .  S
N254        H259   1.045       .  S
N257        H260   1.037       .  S
N257        H261   1.046       .  S
C262        C263   1.402       .  A
C262        C267   1.399       .  A
C262        H269   1.082       .  S
C263        C264   1.452       .  A
C264        C265   1.409       .  A
C264        N271   1.428       .  S
C265        C266   1.383       .  A
C265        H270   1.084       .  S
C266        C267   1.403       .  A
C267        N268   1.425       .  S
N268        H272   1.046       .  S
N268        H273   1.047       .  S
N271        H274   1.047       .  S
N271        H275   1.037       .  S
C276        C277   1.405       .  A
C276        C281   1.380       .  A
C276        H283   1.079       .  S
C277        C278   1.408       .  A
C278        C279   1.371       .  A
C278        N285   1.432       .  S
C279        C280   1.414       .  A
C279        H284   1.085       .  S
C280        C281   1.428       .  A
C281        N282   1.433       .  S
N282        H286   1.046       .  S
N282        H287   1.046       .  S
N285        H288   1.046       .  S
N285        H289   1.046       .  S
C290        C291   1.376       .  A
C290        C295   1.392       .  A
C290        H297   1.085       .  S
C291       C1672   1.414       .  A
C292        C293   1.404       .  A
C292       C1671   1.414       .  A
C292        N299   1.425   1_655  S
C293       C1674   1.401       .  A
C293        H298   1.081   1_655  S
C294        C295   1.454       .  A
C294       C1673   1.401       .  A
C295        N296   1.432       .  S
N296        H300   1.045       .  S
N296        H301   1.043       .  S
N299        H302   1.046       .  S
N299        H303   1.045       .  S
C304        C309   1.413       .  A
C304       C1685   1.410       .  A
C304        H311   1.084       .  S
C305       C1381   1.568       .  S
C305        C306   1.418       .  A
C305       C1684   1.410   1_455  A
C306        C307   1.392       .  A
C306        N313   1.438       .  S
C307        C308   1.403       .  A
C307        H312   1.085       .  S
C308       C1689   1.418   1_455  A
C309       C1688   1.418       .  A
C309        N310   1.433       .  S
N310        H314   1.043       .  S
N310        H315   1.041       .  S
N313        H316   1.045       .  S
N313        H317   1.046       .  S
C318        C319   1.404       .  A
C318        C323   1.380       .  A
C318        H325   1.081       .  S
C319       C1381   1.518       .  S
C319        C320   1.417       .  A
C320        C321   1.362       .  A
C320        N327   1.435       .  S
C321        C322   1.385       .  A
C321        H326   1.057       .  S
C322        C323   1.411       .  A
C323        N324   1.432       .  S
N324        H328   1.046       .  S
N324        H329   1.045       .  S
N327        H331   1.046       .  S
N327       H1710   1.042       .  S
H330       N1707   1.042       .  S
C332        C333   1.411       .  A
C332        C337   1.369       .  A
C332        H339   1.080       .  S
C333        C334   1.411       .  A
C334        C335   1.370       .  A
C334        N341   1.432       .  S
C335        C336   1.391       .  A
C335       H1720   1.074       .  S
C336        C337   1.404       .  A
C337        N338   1.436       .  S
N338        H342   1.046       .  S
N338        H343   1.043       .  S
H340       C1715   1.074       .  S
N341        H344   1.043       .  S
N341       H1725   1.045       .  S
H345       N1721   1.045       .  S
C346        C639   1.578       .  S
C346       C2030   1.568       .  S
C346       C2044   1.518       .  S
C346        C681   1.541       .  S
C347        C594   1.583       .  S
C347        C608   1.584       .  S
C347        C622   1.521       .  S
C347        C667   1.546       .  S
C348        C552   1.631       .  S
C348        C566   1.605       .  S
C348        C583   1.538       .  S
C348        C625   1.550       .  S
C349        C513   1.562       .  S
C349       C1904   1.584       .  S
C349        C538   1.546       .  S
C349       C1960   1.560       .  S
C350        C471   1.591       .  S
C350        C482   1.610       .  S
C350        C496   1.499       .  S
C350        C541   1.551       .  S
C351        C440   1.554       .  S
C351        C454   1.550       .  S
C351        C499   1.519       .  S
C351        C678   1.522       .  S
O352        C360   1.270       .  A
O352       Co372   1.964       .  S
O353        C361   1.257       .  A
O353       Co373   1.923       .  S
O354        C362   1.281       .  A
O354       Co374   1.965       .  S
O355      Co1065   2.041       .  S
O356       Co373   2.162       .  S
O357        C363   1.274   1_556  A
O357      Co1062   2.096       .  S
O358        C361   1.279       .  A
O358       Co375   1.978   1_545  S
O359        C360   1.276       .  A
O359       Co374   1.973       .  S
C360        C457   1.440       .  S
C361        C443   1.435       .  S
C362        C407   1.564       .  S
C363        C420   1.574       .  S
O364        C377   1.278       .  A
O364      Co1062   1.906       .  S
O365       Co373   1.957       .  S
O366        C379   1.270       .  A
O366       Co374   1.990       .  S
O367        C380   1.247       .  A
O367       Co375   1.945   1_545  S
O368        C380   1.270       .  A
O368       Co373   2.014       .  S
O369        C379   1.269       .  A
O369       Co372   1.969       .  S
O370      Co1065   2.132       .  S
O371        C378   1.299       .  A
O371       Co374   2.141       .  S
Co372      O1047   2.096   1_545  S
Co372      O1054   1.906   1_545  S
Co372       O376   1.988       .  S
Co374       O376   2.093       .  S
Co375      O1045   2.041       .  S
Co375      O1060   2.132       .  S
C377        C392   1.504       .  S
C378        C435   1.541       .  S
C379        C569   1.471       .  S
C380        C555   1.522       .  S
O381        C389   1.267   1_455  A
O381       Co401   1.985       .  S
O382        C390   1.272       .  A
O382       Co402   1.994       .  S
O383        C391   1.314       .  A
O383       Co403   2.186       .  S
O384       Co404   2.065       .  S
O385       Co402   1.932       .  S
O386        C392   1.260       .  A
O386       Co401   1.971       .  S
O387       C1770   1.259       .  A
O387       Co404   1.948       .  S
O388       C1769   1.263       .  A
O388       Co403   1.990       .  S
C389       O1768   1.263       .  A
C389        C527   1.500       .  S
C390       O1767   1.259       .  A
C390        C510   1.461       .  S
C391        C421   1.542       .  S
O393        C406   1.287       .  A
O393       Co401   2.103       .  S
O394       Co402   2.197       .  S
O395       C1788   1.278       .  A
O395       Co403   1.995       .  S
O396       C1789   1.262   1_455  A
O396       Co404   1.972       .  S
O397        C409   1.258       .  A
O397       Co402   1.999       .  S
O398        C408   1.259       .  A
O398       Co401   1.928       .  S
O399       Co404   2.003       .  S
O400        C407   1.266       .  A
O400       Co403   1.945       .  S
Co401       O405   2.105       .  S
Co402      O1440   2.114       .  S
Co403      O1785   2.123       .  S
O405      Co1437   2.114   1_456  S
O405      Co1783   2.123   1_455  S
C406        C436   1.553       .  S
C408       O1775   1.278   1_455  A
C408        C653   1.469       .  S
C409       O1776   1.262       .  A
C409        C636   1.474       .  S
O410        C418   1.268       .  A
O410       Co430   1.972       .  S
O411        C419   1.281       .  A
O411       Co431   2.002       .  S
O412        C420   1.327   1_556  A
O412       Co432   2.191       .  S
O413       Co433   2.056       .  S
O414       Co431   1.952       .  S
O415        C421   1.251       .  A
O415       Co430   2.030       .  S
O416        C419   1.255       .  A
O416       Co433   1.948       .  S
O417        C418   1.277       .  A
O417       Co432   1.985       .  S
C418        C485   1.472       .  S
C419        C468   1.487       .  S
O422        C435   1.288       .  A
O422       Co430   1.981       .  S
O423       Co431   2.062       .  S
O424        C437   1.274       .  A
O424       Co432   2.020       .  S
O425        C438   1.270       .  A
O425       Co433   1.970       .  S
O426        C438   1.260       .  A
O426       Co431   1.980       .  S
O427        C437   1.273       .  A
O427       Co430   1.987       .  S
O428       Co433   2.090       .  S
O429        C436   1.261       .  A
O429       Co432   2.045       .  S
Co430       O434   2.020       .  S
Co432       O434   2.200       .  S
C437        C611   1.481       .  S
C438        C597   1.485       .  S
C439        C440   1.429       .  A
C439        C444   1.363       .  A
C439       H1136   1.075       .  S
C440        C441   1.423       .  A
C441        C442   1.404       .  A
C441        N448   1.431       .  S
C442        C443   1.400       .  A
C442        H447   1.082       .  S
C443        C444   1.375       .  A
C444       N1135   1.436       .  S
N445       C1134   1.436       .  S
N445        H449   1.045       .  S
N445        H450   1.046       .  S
H446       C1129   1.075       .  S
N448        H451   1.046       .  S
N448        H452   1.045       .  S
C453        C454   1.439       .  A
C453        C458   1.374       .  A
C453        H460   1.077       .  S
C454        C455   1.408       .  A
C455        C456   1.394       .  A
C455        N462   1.431       .  S
C456        C457   1.406       .  A
C456        H461   1.073       .  S
C457        C458   1.385       .  A
C458        N459   1.441       .  S
N459        H463   1.046       .  S
N459        H464   1.043       .  S
N462        H465   1.036       .  S
N462        H466   1.043       .  S
C467        C468   1.380       .  A
C467        C472   1.399       .  A
C467        H474   1.084       .  S
C468        C469   1.423       .  A
C469        C470   1.403       .  A
C469        N476   1.433       .  S
C470        C471   1.402       .  A
C470        H475   1.073       .  S
C471        C472   1.466       .  A
C472        N473   1.442       .  S
N473        H477   1.042       .  S
N473        H478   1.044       .  S
N476        H479   1.042       .  S
N476        H480   1.044       .  S
C481        C482   1.426       .  A
C481        C486   1.417       .  A
C481        H488   1.075       .  S
C482        C483   1.467       .  A
C483        C484   1.386       .  A
C483        N490   1.427       .  S
C484        C485   1.371       .  A
C484        H489   1.086       .  S
C485        C486   1.397       .  A
C486        N487   1.435       .  S
N487        H491   1.044       .  S
N487        H492   1.040       .  S
N490        H493   1.047       .  S
N490        H494   1.046       .  S
C495        C496   1.417       .  A
C495       C1190   1.372       .  A
C495        H502   1.085       .  S
C496       C1187   1.416       .  A
C497       C1186   1.416       .  A
C497        C498   1.364   1_565  A
C497        N504   1.434       .  S
C498        C499   1.400       .  A
C498        H503   1.078       .  S
C499        C500   1.411   1_545  A
C500       C1185   1.372       .  A
C500        N501   1.434       .  S
N501       H1195   1.045       .  S
N501        H506   1.046       .  S
N504       H1197   1.045   1_565  S
N504       H1888   1.045   1_565  S
H505       N1191   1.045       .  S
H507       N1194   1.045       .  S
H508       N1884   1.045   1_545  S
C509        C510   1.397       .  A
C509        C514   1.403       .  A
C509        H516   1.085       .  S
C510       C1891   1.409       .  A
C511       C1890   1.409   1_455  A
C511        C512   1.404       .  A
C511        N518   1.434       .  S
C512       C1893   1.412   1_455  A
C512        H517   1.078       .  S
C513       C1892   1.412       .  A
C513        C514   1.424       .  A
C514        N515   1.422       .  S
N515        H519   1.046       .  S
N515        H520   1.044       .  S
N518        H521   1.046       .  S
N518        H522   1.045       .  S
C523        C524   1.416   1_455  A
C523        C528   1.416       .  A
C523        H530   1.084       .  S
C524       C1729   1.584       .  S
C524       C1905   1.418       .  A
C525       C1904   1.418       .  A
C525        C526   1.401       .  A
C525        N532   1.424       .  S
C526       C1907   1.396       .  A
C526        H531   1.079       .  S
C527       C1906   1.396       .  A
C527        C528   1.424   1_655  A
C528        N529   1.430       .  S
N529        H533   1.040       .  S
N529        H534   1.045       .  S
N532        H535   1.035       .  S
N532        H536   1.046       .  S
C537        C538   1.416       .  A
C537        C542   1.385       .  A
C537        H544   1.073       .  S
C538        C539   1.419       .  A
C539        C540   1.375       .  A
C539        N546   1.434       .  S
C540        C541   1.410       .  A
C540        H545   1.070       .  S
C541        C542   1.416       .  A
C542        N543   1.436       .  S
N543        H547   1.044       .  S
N543        H548   1.045       .  S
N546       H1929   1.046       .  S
N546        H550   1.046       .  S
H549       N1926   1.046       .  S
C551        C552   1.433       .  A
C551        C556   1.415       .  A
C551        H558   1.068       .  S
C552        C553   1.434       .  A
C553        C554   1.424       .  A
C553       N1250   1.430   1_545  S
C554        C555   1.414       .  A
C554       H1249   1.083   1_545  S
C555        C556   1.405       .  A
C556        N557   1.437       .  S
N557        H561   1.045       .  S
N557        H562   1.045       .  S
H559       C1244   1.083       .  S
N560       C1243   1.430       .  S
N560        H563   1.045       .  S
N560        H564   1.044       .  S
C565        C566   1.443       .  A
C565        C570   1.388       .  A
C565        H572   1.076       .  S
C566        C567   1.423       .  A
C567        C568   1.420       .  A
C567        N574   1.426   1_545  S
C568        C569   1.411       .  A
C568        H573   1.082   1_545  S
C569        C570   1.385       .  A
C570        N571   1.439       .  S
N571        H575   1.046       .  S
N571        H576   1.044       .  S
N574        H577   1.046       .  S
N574        H578   1.045       .  S
C579        C580   1.413       .  A
C579        C584   1.378       .  A
C579        H586   1.075       .  S
C580       C1729   1.560   1_455  S
C580       C1271   1.421       .  A
C581       C1270   1.421       .  A
C581        C582   1.386   1_565  A
C581        N588   1.428       .  S
C582        C583   1.409       .  A
C582        H587   1.085       .  S
C583       C1274   1.415   1_545  A
C584       C1273   1.415       .  A
C584        N585   1.433       .  S
N585        H589   1.046       .  S
N585       H1280   1.046       .  S
N588        H591   1.046       .  S
N588        H592   1.046       .  S
H590       N1275   1.046       .  S
C593        C594   1.428       .  A
C593        C598   1.393       .  A
C593        H600   1.075       .  S
C594        C595   1.439       .  A
C595        C596   1.412       .  A
C595        N602   1.441       .  S
C596        C597   1.410       .  A
C596        H601   1.084       .  S
C597        C598   1.399       .  A
C598        N599   1.432       .  S
N599        H603   1.045       .  S
N599        H604   1.045       .  S
N602        H605   1.037       .  S
N602        H606   1.046       .  S
C607        C608   1.402       .  A
C607        C612   1.399       .  A
C607        H614   1.082       .  S
C608        C609   1.452       .  A
C609        C610   1.409       .  A
C609        N616   1.428       .  S
C610        C611   1.383       .  A
C610        H615   1.084       .  S
C611        C612   1.403       .  A
C612        N613   1.425       .  S
N613        H617   1.046       .  S
N613        H618   1.047       .  S
N616        H619   1.047       .  S
N616        H620   1.037       .  S
C621        C622   1.405       .  A
C621        C626   1.380       .  A
C621        H628   1.079       .  S
C622        C623   1.408       .  A
C623        C624   1.371       .  A
C623        N630   1.432       .  S
C624        C625   1.414       .  A
C624        H629   1.085       .  S
C625        C626   1.428       .  A
C626        N627   1.433       .  S
N627        H631   1.046       .  S
N627        H632   1.046       .  S
N630        H633   1.046       .  S
N630        H634   1.046       .  S
C635        C636   1.376       .  A
C635        C640   1.392       .  A
C635        H642   1.085       .  S
C636       C2017   1.414       .  A
C637       C2016   1.414       .  A
C637        C638   1.404       .  A
C637        N644   1.425   1_655  S
C638       C2019   1.401       .  A
C638        H643   1.081   1_655  S
C639       C2018   1.401       .  A
C639        C640   1.454       .  A
C640        N641   1.432       .  S
N641        H645   1.045       .  S
N641        H646   1.043       .  S
N644        H647   1.046       .  S
N644        H648   1.045       .  S
C649       C2030   1.410       .  A
C649        C654   1.413       .  A
C649        H656   1.084       .  S
C650       C1726   1.568       .  S
C650       C2029   1.410   1_455  A
C650        C651   1.418       .  A
C651        C652   1.392       .  A
C651        N658   1.438       .  S
C652        C653   1.403       .  A
C652        H657   1.085       .  S
C653       C2034   1.418   1_455  A
C654       C2033   1.418       .  A
C654        N655   1.433       .  S
N655        H659   1.043       .  S
N655        H660   1.041       .  S
N658        H661   1.045       .  S
N658        H662   1.046       .  S
C663        C664   1.404       .  A
C663        C668   1.380       .  A
C663        H670   1.081       .  S
C664       C1726   1.518       .  S
C664        C665   1.417       .  A
C665        C666   1.362       .  A
C665        N672   1.435       .  S
C666        C667   1.385       .  A
C666        H671   1.057       .  S
C667        C668   1.411       .  A
C668        N669   1.432       .  S
N669        H673   1.046       .  S
N669        H674   1.045       .  S
N672       H2055   1.042       .  S
N672        H676   1.046       .  S
H675       N2052   1.042       .  S
C677        C678   1.411       .  A
C677        C682   1.369       .  A
C677        H684   1.080       .  S
C678        C679   1.411       .  A
C679        C680   1.370       .  A
C679        N686   1.432       .  S
C680        C681   1.391       .  A
C680       H2065   1.074       .  S
C681        C682   1.404       .  A
C682        N683   1.436       .  S
N683        H687   1.046       .  S
N683        H688   1.043       .  S
H685       C2060   1.074       .  S
N686        H689   1.043       .  S
N686       H2070   1.045       .  S
H690       N2066   1.045       .  S
C691        C984   1.578       .  S
C691       C2375   1.568       .  S
C691       C2389   1.518       .  S
C691       C1026   1.541       .  S
C692        C939   1.583       .  S
C692        C953   1.584       .  S
C692        C967   1.521       .  S
C692       C1012   1.546       .  S
C693        C897   1.631       .  S
C693        C911   1.605       .  S
C693        C928   1.538       .  S
C693        C970   1.550       .  S
C694        C858   1.562       .  S
C694       C2249   1.584       .  S
C694        C883   1.546       .  S
C694       C2305   1.560       .  S
C695        C816   1.591       .  S
C695        C827   1.610       .  S
C695        C841   1.499       .  S
C695        C886   1.551       .  S
C696        C785   1.554       .  S
C696        C799   1.550       .  S
C696        C844   1.519       .  S
C696       C1023   1.522       .  S
O697        C705   1.270       .  A
O697       Co717   1.964       .  S
O698        C706   1.257       .  A
O698       Co718   1.923       .  S
O699        C707   1.281       .  A
O699       Co719   1.965       .  S
O700       C1053   1.271       .  A
O701       C1052   1.306       .  A
O701       Co718   2.162   1_556  S
O702        C708   1.274       .  A
O703        C706   1.279       .  A
O703       Co720   1.978       .  S
O704        C705   1.276       .  A
O704       Co719   1.973       .  S
C705        C802   1.440       .  S
C706        C788   1.435       .  S
C707       O1046   1.306       .  A
C707        C752   1.564       .  S
C708       O1045   1.271       .  A
C708        C765   1.574       .  S
O709        C722   1.278       .  A
O710       C1068   1.269   1_554  A
O710       Co718   1.957       .  S
O711        C724   1.270       .  A
O711       Co719   1.990       .  S
O712        C725   1.247       .  A
O712       Co720   1.945       .  S
O713        C725   1.270       .  A
O713       Co718   2.014       .  S
O714        C724   1.269       .  A
O714       Co717   1.969       .  S
O715       C1067   1.305   1_554  A
O716        C723   1.299       .  A
O716       Co719   2.141       .  S
Co717       O721   1.988       .  S
Co718      O1066   2.127   1_554  S
Co719       O721   2.093       .  S
Co720      O1066   2.156   1_554  S
O721      Co1063   2.127       .  S
O721      Co1065   2.156       .  S
C722       O1060   1.305       .  A
C722        C737   1.504       .  S
C723       O1055   1.269       .  A
C723        C780   1.541       .  S
C724        C914   1.471       .  S
C725        C900   1.522       .  S
O726        C734   1.267   1_455  A
O726       Co746   1.985       .  S
O727        C735   1.272       .  A
O727       Co747   1.994       .  S
O728        C736   1.314       .  A
O728       Co748   2.186       .  S
O729       C1082   1.277   1_554  A
O729       Co749   2.065       .  S
O730       C1081   1.258   1_554  A
O730       Co747   1.932       .  S
O731        C737   1.260       .  A
O731       Co746   1.971       .  S
O732       C2115   1.259       .  A
O732       Co749   1.948       .  S
O733       C2114   1.263       .  A
O733       Co748   1.990       .  S
C734       O2113   1.263       .  A
C734        C872   1.500       .  S
C735       O2112   1.259       .  A
C735        C855   1.461       .  S
C736       O1075   1.258       .  A
C736        C766   1.542       .  S
C737       O1074   1.277       .  A
O738        C751   1.287       .  A
O738       Co746   2.103       .  S
O739       C1097   1.320       .  A
O739       Co747   2.197   1_556  S
O740       C2133   1.278       .  A
O740       Co748   1.995       .  S
O741       C2134   1.262   1_455  A
O741       Co749   1.972       .  S
O742        C754   1.258       .  A
O742       Co747   1.999       .  S
O743        C753   1.259       .  A
O743       Co746   1.928       .  S
O744       C1096   1.267       .  A
O744       Co749   2.003   1_556  S
O745        C752   1.266       .  A
O745       Co748   1.945       .  S
Co746       O750   2.105       .  S
Co747      O2475   2.114   1_554  S
Co748      O2130   2.123       .  S
Co749      O1095   2.116   1_554  S
O750      Co2472   2.114   1_455  S
O750      Co2128   2.123   1_455  S
O750      Co1094   2.116       .  S
C751       O1089   1.267       .  A
C751        C781   1.553       .  S
C752       O1084   1.320       .  A
C753       O2120   1.278   1_455  A
C753        C998   1.469       .  S
C754       O2121   1.262       .  A
C754        C981   1.474       .  S
O755        C763   1.268       .  A
O755       Co775   1.972       .  S
O756        C764   1.281       .  A
O756       Co776   2.002       .  S
O757        C765   1.327       .  A
O757       Co777   2.191       .  S
O758       C1111   1.264   1_554  A
O758       Co778   2.056       .  S
O759       C1110   1.281       .  A
O759       Co776   1.952       .  S
O760        C766   1.251       .  A
O760       Co775   2.030       .  S
O761        C764   1.255       .  A
O761       Co778   1.948       .  S
O762        C763   1.277       .  A
O762       Co777   1.985       .  S
C763        C830   1.472       .  S
C764        C813   1.487       .  S
C765       O1104   1.281       .  A
C766       O1103   1.264       .  A
O767        C780   1.288       .  A
O767       Co775   1.981       .  S
O768       C1126   1.270   1_554  A
O768       Co776   2.062       .  S
O769        C782   1.274       .  A
O769       Co777   2.020       .  S
O770        C783   1.270       .  A
O770       Co778   1.970       .  S
O771        C783   1.260       .  A
O771       Co776   1.980       .  S
O772        C782   1.273       .  A
O772       Co775   1.987       .  S
O773       C1125   1.303   1_554  A
O773       Co778   2.090       .  S
O774        C781   1.261       .  A
O774       Co777   2.045       .  S
Co775       O779   2.020       .  S
Co776      O1124   2.025   1_554  S
Co777       O779   2.200       .  S
Co778      O1124   2.202   1_554  S
O779      Co1121   2.025       .  S
O779      Co1123   2.202       .  S
C780       O1118   1.303       .  A
C781       O1113   1.270       .  A
C782        C956   1.481       .  S
C783        C942   1.485       .  S
C784        C785   1.429       .  A
C784        C789   1.363       .  A
C785        C786   1.423       .  A
C786        C787   1.404       .  A
C786        N793   1.431       .  S
C787        C788   1.400       .  A
C787        H792   1.082       .  S
C788        C789   1.375       .  A
N790        H794   1.045       .  S
N790        H795   1.046       .  S
N793        H796   1.046       .  S
N793        H797   1.045       .  S
C798        C799   1.439       .  A
C798        C803   1.374       .  A
C798        H805   1.077       .  S
C799        C800   1.408       .  A
C800        C801   1.394       .  A
C800        N807   1.431       .  S
C801        C802   1.406       .  A
C801        H806   1.073       .  S
C802        C803   1.385       .  A
C803        N804   1.441       .  S
N804        H808   1.046       .  S
N804        H809   1.043       .  S
N807        H810   1.036       .  S
N807        H811   1.043       .  S
C812        C813   1.380       .  A
C812        C817   1.399       .  A
C812        H819   1.084       .  S
C813        C814   1.423       .  A
C814        C815   1.403       .  A
C814        N821   1.433       .  S
C815        C816   1.402       .  A
C815        H820   1.073       .  S
C816        C817   1.466       .  A
C817        N818   1.442       .  S
N818        H822   1.042       .  S
N818        H823   1.044       .  S
N821        H824   1.042       .  S
N821        H825   1.044       .  S
C826        C827   1.426       .  A
C826        C831   1.417       .  A
C826        H833   1.075       .  S
C827        C828   1.467       .  A
C828        C829   1.386       .  A
C828        N835   1.427       .  S
C829        C830   1.371       .  A
C829        H834   1.086       .  S
C830        C831   1.397       .  A
C831        N832   1.435       .  S
N832        H836   1.044       .  S
N832        H837   1.040       .  S
N835        H838   1.047       .  S
N835        H839   1.046       .  S
C840        C841   1.417       .  A
C840        H847   1.085       .  S
C842        C843   1.364       .  A
C842        N849   1.434       .  S
C843        C844   1.400       .  A
C843        H848   1.078       .  S
C844        C845   1.411       .  A
C845        N846   1.434       .  S
N846        H851   1.046       .  S
N849       H2233   1.045       .  S
H853       N2229   1.045       .  S
C854        C855   1.397       .  A
C854        C859   1.403       .  A
C854        H861   1.085       .  S
C855       C2236   1.409       .  A
C856       C2235   1.409   1_455  A
C856        C857   1.404       .  A
C856        N863   1.434       .  S
C857       C2238   1.412   1_455  A
C857        H862   1.078       .  S
C858       C2237   1.412       .  A
C858        C859   1.424       .  A
C859        N860   1.422       .  S
N860        H864   1.046       .  S
N860        H865   1.044       .  S
N863        H866   1.046       .  S
N863        H867   1.045       .  S
C868        C869   1.416   1_455  A
C868        C873   1.416       .  A
C868        H875   1.084       .  S
C869       C2074   1.584       .  S
C869       C2250   1.418       .  A
C870       C2249   1.418       .  A
C870        C871   1.401       .  A
C870        N877   1.424       .  S
C871       C2252   1.396       .  A
C871        H876   1.079       .  S
C872       C2251   1.396       .  A
C872        C873   1.424   1_655  A
C873        N874   1.430       .  S
N874        H878   1.040       .  S
N874        H879   1.045       .  S
N877        H880   1.035       .  S
N877        H881   1.046       .  S
C882        C883   1.416       .  A
C882        C887   1.385       .  A
C882        H889   1.073       .  S
C883        C884   1.419       .  A
C884        C885   1.375       .  A
C884        N891   1.434       .  S
C885        C886   1.410       .  A
C885        H890   1.070       .  S
C886        C887   1.416       .  A
C887        N888   1.436       .  S
N888        H892   1.044       .  S
N888        H893   1.045       .  S
N891       H2274   1.046       .  S
N891        H895   1.046       .  S
H894       N2271   1.046       .  S
C896        C897   1.433       .  A
C896        C901   1.415       .  A
C896        H903   1.068       .  S
C897        C898   1.434       .  A
C898        C899   1.424       .  A
C899        C900   1.414       .  A
C900        C901   1.405       .  A
C901        N902   1.437       .  S
N902        H906   1.045       .  S
N902        H907   1.045       .  S
N905        H908   1.045       .  S
N905        H909   1.044       .  S
C910        C911   1.443       .  A
C910        C915   1.388       .  A
C910        H917   1.076       .  S
C911        C912   1.423       .  A
C912        C913   1.420       .  A
C912        N919   1.426       .  S
C913        C914   1.411       .  A
C913        H918   1.082       .  S
C914        C915   1.385       .  A
C915        N916   1.439       .  S
N916        H920   1.046       .  S
N916        H921   1.044       .  S
N919        H922   1.046       .  S
N919        H923   1.045       .  S
C924        C925   1.413       .  A
C924        C929   1.378       .  A
C924        H931   1.075       .  S
C925       C2074   1.560   1_455  S
C926        C927   1.386       .  A
C926        N933   1.428       .  S
C927        C928   1.409       .  A
C927        H932   1.085       .  S
C929        N930   1.433       .  S
N930        H934   1.046       .  S
N933        H936   1.046       .  S
N933        H937   1.046       .  S
C938        C939   1.428       .  A
C938        C943   1.393       .  A
C938        H945   1.075       .  S
C939        C940   1.439       .  A
C940        C941   1.412       .  A
C940        N947   1.441       .  S
C941        C942   1.410       .  A
C941        H946   1.084       .  S
C942        C943   1.399       .  A
C943        N944   1.432       .  S
N944        H948   1.045       .  S
N944        H949   1.045       .  S
N947        H950   1.037       .  S
N947        H951   1.046       .  S
C952        C953   1.402       .  A
C952        C957   1.399       .  A
C952        H959   1.082       .  S
C953        C954   1.452       .  A
C954        C955   1.409       .  A
C954        N961   1.428       .  S
C955        C956   1.383       .  A
C955        H960   1.084       .  S
C956        C957   1.403       .  A
C957        N958   1.425       .  S
N958        H962   1.046       .  S
N958        H963   1.047       .  S
N961        H964   1.047       .  S
N961        H965   1.037       .  S
C966        C967   1.405       .  A
C966        C971   1.380       .  A
C966        H973   1.079       .  S
C967        C968   1.408       .  A
C968        C969   1.371       .  A
C968        N975   1.432       .  S
C969        C970   1.414       .  A
C969        H974   1.085       .  S
C970        C971   1.428       .  A
C971        N972   1.433       .  S
N972        H976   1.046       .  S
N972        H977   1.046       .  S
N975        H978   1.046       .  S
N975        H979   1.046       .  S
C980        C981   1.376       .  A
C980        C985   1.392       .  A
C980        H987   1.085       .  S
C981       C2362   1.414       .  A
C982       C2361   1.414       .  A
C982        C983   1.404       .  A
C982        N989   1.425   1_655  S
C983       C2364   1.401       .  A
C983        H988   1.081   1_655  S
C984       C2363   1.401       .  A
C984        C985   1.454       .  A
C985        N986   1.432       .  S
N986        H990   1.045       .  S
N986        H991   1.043       .  S
N989        H992   1.046       .  S
N989        H993   1.045       .  S
C994       C2375   1.410       .  A
C994        C999   1.413       .  A
C994       H1001   1.084       .  S
C995       C2071   1.568       .  S
C995       C2374   1.410   1_455  A
C995        C996   1.418       .  A
C996        C997   1.392       .  A
C996       N1003   1.438       .  S
C997        C998   1.403       .  A
C997       H1002   1.085       .  S
C998       C2379   1.418   1_455  A
C999       C2378   1.418       .  A
C999       N1000   1.433       .  S
N1000      H1004   1.043       .  S
N1000      H1005   1.041       .  S
N1003      H1006   1.045       .  S
N1003      H1007   1.046       .  S
C1008      C1009   1.404       .  A
C1008      C1013   1.380       .  A
C1008      H1015   1.081       .  S
C1009      C2071   1.518       .  S
C1009      C1010   1.417       .  A
C1010      C1011   1.362       .  A
C1010      N1017   1.435       .  S
C1011      C1012   1.385       .  A
C1011      H1016   1.057       .  S
C1012      C1013   1.411       .  A
C1013      N1014   1.432       .  S
N1014      H1018   1.046       .  S
N1014      H1019   1.045       .  S
N1017      H2400   1.042       .  S
N1017      H1021   1.046       .  S
H1020      N2397   1.042       .  S
C1022      C1023   1.411       .  A
C1022      C1027   1.369       .  A
C1022      H1029   1.080       .  S
C1023      C1024   1.411       .  A
C1024      C1025   1.370       .  A
C1024      N1031   1.432       .  S
C1025      C1026   1.391       .  A
C1025      H2410   1.074       .  S
C1026      C1027   1.404       .  A
C1027      N1028   1.436       .  S
N1028      H1032   1.046       .  S
N1028      H1033   1.043       .  S
H1030      C2405   1.074       .  S
N1031      H1034   1.043       .  S
N1031      H2415   1.045       .  S
H1035      N2411   1.045       .  S
C1036      C1329   1.578       .  S
C1036      C2720   1.568       .  S
C1036      C2734   1.518       .  S
C1036      C1371   1.541       .  S
C1037      C1284   1.583       .  S
C1037      C1298   1.584       .  S
C1037      C1312   1.521       .  S
C1037      C1357   1.546       .  S
C1038      C1242   1.631       .  S
C1038      C1256   1.605       .  S
C1038      C1273   1.538       .  S
C1038      C1315   1.550       .  S
C1039      C1203   1.562       .  S
C1039      C2594   1.584       .  S
C1039      C1228   1.546       .  S
C1039      C2650   1.560       .  S
C1040      C1161   1.591       .  S
C1040      C1172   1.610       .  S
C1040      C1186   1.499       .  S
C1040      C1231   1.551       .  S
C1041      C1130   1.554       .  S
C1041      C1144   1.550       .  S
C1041      C1189   1.519       .  S
C1041      C1368   1.522       .  S
O1042      C1050   1.270       .  A
O1042     Co1062   1.964       .  S
O1043      C1051   1.257       .  A
O1043     Co1063   1.923       .  S
O1044      C1052   1.281       .  A
O1044     Co1064   1.965       .  S
O1046     Co1063   2.162       .  S
O1047      C1053   1.274   1_556  A
O1048      C1051   1.279       .  A
O1048     Co1065   1.978       .  S
O1049      C1050   1.276       .  A
O1049     Co1064   1.973       .  S
C1050      C1147   1.440       .  S
C1051      C1133   1.435       .  S
C1052      C1097   1.564       .  S
C1053      C1110   1.574       .  S
O1054      C1067   1.278       .  A
O1055     Co1063   1.957       .  S
O1056      C1069   1.270       .  A
O1056     Co1064   1.990       .  S
O1057      C1070   1.247       .  A
O1057     Co1065   1.945       .  S
O1058      C1070   1.270       .  A
O1058     Co1063   2.014       .  S
O1059      C1069   1.269       .  A
O1059     Co1062   1.969       .  S
O1061      C1068   1.299       .  A
O1061     Co1064   2.141       .  S
Co1062     O1066   1.988       .  S
Co1064     O1066   2.093       .  S
C1067      C1082   1.504       .  S
C1068      C1125   1.541       .  S
C1069      C1259   1.471       .  S
C1070      C1245   1.522       .  S
O1071      C1079   1.267   1_455  A
O1071     Co1091   1.985       .  S
O1072      C1080   1.272       .  A
O1072     Co1092   1.994       .  S
O1073      C1081   1.314       .  A
O1073     Co1093   2.186       .  S
O1074     Co1094   2.065       .  S
O1075     Co1092   1.932       .  S
O1076      C1082   1.260       .  A
O1076     Co1091   1.971       .  S
O1077      C2460   1.259       .  A
O1077     Co1094   1.948       .  S
O1078      C2459   1.263       .  A
O1078     Co1093   1.990       .  S
C1079      O2458   1.263       .  A
C1079      C1217   1.500       .  S
C1080      O2457   1.259       .  A
C1080      C1200   1.461       .  S
C1081      C1111   1.542       .  S
O1083      C1096   1.287       .  A
O1083     Co1091   2.103       .  S
O1084     Co1092   2.197       .  S
O1085      C2478   1.278       .  A
O1085     Co1093   1.995       .  S
O1086      C2479   1.262   1_455  A
O1086     Co1094   1.972       .  S
O1087      C1099   1.258       .  A
O1087     Co1092   1.999       .  S
O1088      C1098   1.259       .  A
O1088     Co1091   1.928       .  S
O1089     Co1094   2.003       .  S
O1090      C1097   1.266       .  A
O1090     Co1093   1.945       .  S
Co1091     O1095   2.105       .  S
Co1092     O2130   2.114       .  S
Co1093     O2475   2.123       .  S
O1095     Co2127   2.114   1_456  S
O1095     Co2473   2.123   1_455  S
C1096      C1126   1.553       .  S
C1098      O2465   1.278   1_455  A
C1098      C1343   1.469       .  S
C1099      O2466   1.262       .  A
C1099      C1326   1.474       .  S
O1100      C1108   1.268       .  A
O1100     Co1120   1.972       .  S
O1101      C1109   1.281       .  A
O1101     Co1121   2.002       .  S
O1102      C1110   1.327   1_556  A
O1102     Co1122   2.191       .  S
O1103     Co1123   2.056       .  S
O1104     Co1121   1.952       .  S
O1105      C1111   1.251       .  A
O1105     Co1120   2.030       .  S
O1106      C1109   1.255       .  A
O1106     Co1123   1.948       .  S
O1107      C1108   1.277       .  A
O1107     Co1122   1.985       .  S
C1108      C1175   1.472       .  S
C1109      C1158   1.487       .  S
O1112      C1125   1.288       .  A
O1112     Co1120   1.981       .  S
O1113     Co1121   2.062       .  S
O1114      C1127   1.274       .  A
O1114     Co1122   2.020       .  S
O1115      C1128   1.270       .  A
O1115     Co1123   1.970       .  S
O1116      C1128   1.260       .  A
O1116     Co1121   1.980       .  S
O1117      C1127   1.273       .  A
O1117     Co1120   1.987       .  S
O1118     Co1123   2.090       .  S
O1119      C1126   1.261       .  A
O1119     Co1122   2.045       .  S
Co1120     O1124   2.020       .  S
Co1122     O1124   2.200       .  S
C1127      C1301   1.481       .  S
C1128      C1287   1.485       .  S
C1129      C1130   1.429       .  A
C1129      C1134   1.363       .  A
C1130      C1131   1.423       .  A
C1131      C1132   1.404       .  A
C1131      N1138   1.431       .  S
C1132      C1133   1.400       .  A
C1132      H1137   1.082       .  S
C1133      C1134   1.375       .  A
N1135      H1139   1.045       .  S
N1135      H1140   1.046       .  S
N1138      H1141   1.046       .  S
N1138      H1142   1.045       .  S
C1143      C1144   1.439       .  A
C1143      C1148   1.374       .  A
C1143      H1150   1.077       .  S
C1144      C1145   1.408       .  A
C1145      C1146   1.394       .  A
C1145      N1152   1.431       .  S
C1146      C1147   1.406       .  A
C1146      H1151   1.073       .  S
C1147      C1148   1.385       .  A
C1148      N1149   1.441       .  S
N1149      H1153   1.046       .  S
N1149      H1154   1.043       .  S
N1152      H1155   1.036       .  S
N1152      H1156   1.043       .  S
C1157      C1158   1.380       .  A
C1157      C1162   1.399       .  A
C1157      H1164   1.084       .  S
C1158      C1159   1.423       .  A
C1159      C1160   1.403       .  A
C1159      N1166   1.433       .  S
C1160      C1161   1.402       .  A
C1160      H1165   1.073       .  S
C1161      C1162   1.466       .  A
C1162      N1163   1.442       .  S
N1163      H1167   1.042       .  S
N1163      H1168   1.044       .  S
N1166      H1169   1.042       .  S
N1166      H1170   1.044       .  S
C1171      C1172   1.426       .  A
C1171      C1176   1.417       .  A
C1171      H1178   1.075       .  S
C1172      C1173   1.467       .  A
C1173      C1174   1.386       .  A
C1173      N1180   1.427       .  S
C1174      C1175   1.371       .  A
C1174      H1179   1.086       .  S
C1175      C1176   1.397       .  A
C1176      N1177   1.435       .  S
N1177      H1181   1.044       .  S
N1177      H1182   1.040       .  S
N1180      H1183   1.047       .  S
N1180      H1184   1.046       .  S
C1185      C1186   1.417       .  A
C1185      H1192   1.085       .  S
C1187      C1188   1.364       .  A
C1187      N1194   1.434       .  S
C1188      C1189   1.400       .  A
C1188      H1193   1.078       .  S
C1189      C1190   1.411       .  A
C1190      N1191   1.434       .  S
N1191      H1196   1.046       .  S
N1194      H2578   1.045       .  S
H1198      N2574   1.045       .  S
C1199      C1200   1.397       .  A
C1199      C1204   1.403       .  A
C1199      H1206   1.085       .  S
C1200      C2581   1.409       .  A
C1201      C2580   1.409   1_455  A
C1201      C1202   1.404       .  A
C1201      N1208   1.434       .  S
C1202      C2583   1.412   1_455  A
C1202      H1207   1.078       .  S
C1203      C2582   1.412       .  A
C1203      C1204   1.424       .  A
C1204      N1205   1.422       .  S
N1205      H1209   1.046       .  S
N1205      H1210   1.044       .  S
N1208      H1211   1.046       .  S
N1208      H1212   1.045       .  S
C1213      C1214   1.416   1_455  A
C1213      C1218   1.416       .  A
C1213      H1220   1.084       .  S
C1214      C2419   1.584       .  S
C1214      C2595   1.418       .  A
C1215      C2594   1.418       .  A
C1215      C1216   1.401       .  A
C1215      N1222   1.424       .  S
C1216      C2597   1.396       .  A
C1216      H1221   1.079       .  S
C1217      C2596   1.396       .  A
C1217      C1218   1.424   1_655  A
C1218      N1219   1.430       .  S
N1219      H1223   1.040       .  S
N1219      H1224   1.045       .  S
N1222      H1225   1.035       .  S
N1222      H1226   1.046       .  S
C1227      C1228   1.416       .  A
C1227      C1232   1.385       .  A
C1227      H1234   1.073       .  S
C1228      C1229   1.419       .  A
C1229      C1230   1.375       .  A
C1229      N1236   1.434       .  S
C1230      C1231   1.410       .  A
C1230      H1235   1.070       .  S
C1231      C1232   1.416       .  A
C1232      N1233   1.436       .  S
N1233      H1237   1.044       .  S
N1233      H1238   1.045       .  S
N1236      H2619   1.046       .  S
N1236      H1240   1.046       .  S
H1239      N2616   1.046       .  S
C1241      C1242   1.433       .  A
C1241      C1246   1.415       .  A
C1241      H1248   1.068       .  S
C1242      C1243   1.434       .  A
C1243      C1244   1.424       .  A
C1244      C1245   1.414       .  A
C1245      C1246   1.405       .  A
C1246      N1247   1.437       .  S
N1247      H1251   1.045       .  S
N1247      H1252   1.045       .  S
N1250      H1253   1.045       .  S
N1250      H1254   1.044       .  S
C1255      C1256   1.443       .  A
C1255      C1260   1.388       .  A
C1255      H1262   1.076       .  S
C1256      C1257   1.423       .  A
C1257      C1258   1.420       .  A
C1257      N1264   1.426       .  S
C1258      C1259   1.411       .  A
C1258      H1263   1.082       .  S
C1259      C1260   1.385       .  A
C1260      N1261   1.439       .  S
N1261      H1265   1.046       .  S
N1261      H1266   1.044       .  S
N1264      H1267   1.046       .  S
N1264      H1268   1.045       .  S
C1269      C1270   1.413       .  A
C1269      C1274   1.378       .  A
C1269      H1276   1.075       .  S
C1270      C2419   1.560   1_455  S
C1271      C1272   1.386       .  A
C1271      N1278   1.428       .  S
C1272      C1273   1.409       .  A
C1272      H1277   1.085       .  S
C1274      N1275   1.433       .  S
N1275      H1279   1.046       .  S
N1278      H1281   1.046       .  S
N1278      H1282   1.046       .  S
C1283      C1284   1.428       .  A
C1283      C1288   1.393       .  A
C1283      H1290   1.075       .  S
C1284      C1285   1.439       .  A
C1285      C1286   1.412       .  A
C1285      N1292   1.441       .  S
C1286      C1287   1.410       .  A
C1286      H1291   1.084       .  S
C1287      C1288   1.399       .  A
C1288      N1289   1.432       .  S
N1289      H1293   1.045       .  S
N1289      H1294   1.045       .  S
N1292      H1295   1.037       .  S
N1292      H1296   1.046       .  S
C1297      C1298   1.402       .  A
C1297      C1302   1.399       .  A
C1297      H1304   1.082       .  S
C1298      C1299   1.452       .  A
C1299      C1300   1.409       .  A
C1299      N1306   1.428       .  S
C1300      C1301   1.383       .  A
C1300      H1305   1.084       .  S
C1301      C1302   1.403       .  A
C1302      N1303   1.425       .  S
N1303      H1307   1.046       .  S
N1303      H1308   1.047       .  S
N1306      H1309   1.047       .  S
N1306      H1310   1.037       .  S
C1311      C1312   1.405       .  A
C1311      C1316   1.380       .  A
C1311      H1318   1.079       .  S
C1312      C1313   1.408       .  A
C1313      C1314   1.371       .  A
C1313      N1320   1.432       .  S
C1314      C1315   1.414       .  A
C1314      H1319   1.085       .  S
C1315      C1316   1.428       .  A
C1316      N1317   1.433       .  S
N1317      H1321   1.046       .  S
N1317      H1322   1.046       .  S
N1320      H1323   1.046       .  S
N1320      H1324   1.046       .  S
C1325      C1326   1.376       .  A
C1325      C1330   1.392       .  A
C1325      H1332   1.085       .  S
C1326      C2707   1.414       .  A
C1327      C2706   1.414       .  A
C1327      C1328   1.404       .  A
C1327      N1334   1.425   1_655  S
C1328      C2709   1.401       .  A
C1328      H1333   1.081   1_655  S
C1329      C2708   1.401       .  A
C1329      C1330   1.454       .  A
C1330      N1331   1.432       .  S
N1331      H1335   1.045       .  S
N1331      H1336   1.043       .  S
N1334      H1337   1.046       .  S
N1334      H1338   1.045       .  S
C1339      C2720   1.410       .  A
C1339      C1344   1.413       .  A
C1339      H1346   1.084       .  S
C1340      C2416   1.568       .  S
C1340      C2719   1.410   1_455  A
C1340      C1341   1.418       .  A
C1341      C1342   1.392       .  A
C1341      N1348   1.438       .  S
C1342      C1343   1.403       .  A
C1342      H1347   1.085       .  S
C1343      C2724   1.418   1_455  A
C1344      C2723   1.418       .  A
C1344      N1345   1.433       .  S
N1345      H1349   1.043       .  S
N1345      H1350   1.041       .  S
N1348      H1351   1.045       .  S
N1348      H1352   1.046       .  S
C1353      C1354   1.404       .  A
C1353      C1358   1.380       .  A
C1353      H1360   1.081       .  S
C1354      C2416   1.518       .  S
C1354      C1355   1.417       .  A
C1355      C1356   1.362       .  A
C1355      N1362   1.435       .  S
C1356      C1357   1.385       .  A
C1356      H1361   1.057       .  S
C1357      C1358   1.411       .  A
C1358      N1359   1.432       .  S
N1359      H1363   1.046       .  S
N1359      H1364   1.045       .  S
N1362      H2745   1.042       .  S
N1362      H1366   1.046       .  S
H1365      N2742   1.042       .  S
C1367      C1368   1.411       .  A
C1367      C1372   1.369       .  A
C1367      H1374   1.080       .  S
C1368      C1369   1.411       .  A
C1369      C1370   1.370       .  A
C1369      N1376   1.432       .  S
C1370      C1371   1.391       .  A
C1370      H2755   1.074       .  S
C1371      C1372   1.404       .  A
C1372      N1373   1.436       .  S
N1373      H1377   1.046       .  S
N1373      H1378   1.043       .  S
H1375      C2750   1.074       .  S
N1376      H1379   1.043       .  S
N1376      H2760   1.045       .  S
H1380      N2756   1.045       .  S
C1381      C1674   1.578   1_455  S
C1381      C1716   1.541   1_455  S
C1382      C1629   1.583       .  S
C1382      C1643   1.584       .  S
C1382      C1657   1.521       .  S
C1382      C1702   1.546       .  S
C1383      C1587   1.631       .  S
C1383      C1601   1.605       .  S
C1383      C1618   1.538       .  S
C1383      C1660   1.550       .  S
C1384      C1548   1.562       .  S
C1384      C1573   1.546       .  S
C1385      C1506   1.591       .  S
C1385      C1517   1.610       .  S
C1385      C1531   1.499       .  S
C1385      C1576   1.551       .  S
C1386      C1475   1.554       .  S
C1386      C1489   1.550       .  S
C1386      C1534   1.519       .  S
C1386      C1713   1.522       .  S
O1387      C1395   1.270       .  A
O1387     Co1407   1.964       .  S
O1388      C1396   1.257       .  A
O1388     Co1408   1.923       .  S
O1389      C1397   1.281       .  A
O1389     Co1409   1.965       .  S
O1390      C1743   1.271       .  A
O1390     Co2100   2.041       .  S
O1391      C1742   1.306       .  A
O1391     Co1408   2.162   1_556  S
O1392      C1398   1.274       .  A
O1392     Co2097   2.096       .  S
O1393      C1396   1.279       .  A
O1393     Co1410   1.978   1_545  S
O1394      C1395   1.276       .  A
O1394     Co1409   1.973       .  S
C1395      C1492   1.440       .  S
C1396      C1478   1.435       .  S
C1397      O1736   1.306       .  A
C1397      C1442   1.564       .  S
C1398      O1735   1.271       .  A
C1398      C1455   1.574       .  S
O1399      C1412   1.278       .  A
O1399     Co2097   1.906       .  S
O1400      C1758   1.269   1_554  A
O1400     Co1408   1.957       .  S
O1401      C1414   1.270       .  A
O1401     Co1409   1.990       .  S
O1402      C1415   1.247       .  A
O1402     Co1410   1.945   1_545  S
O1403      C1415   1.270       .  A
O1403     Co1408   2.014       .  S
O1404      C1414   1.269       .  A
O1404     Co1407   1.969       .  S
O1405      C1757   1.305   1_554  A
O1405     Co2100   2.132       .  S
O1406      C1413   1.299       .  A
O1406     Co1409   2.141       .  S
Co1407     O2082   2.096   1_545  S
Co1407     O2089   1.906   1_545  S
Co1407     O1411   1.988       .  S
Co1408     O1756   2.127   1_554  S
Co1409     O1411   2.093       .  S
Co1410     O2080   2.041       .  S
Co1410     O2095   2.132       .  S
Co1410     O1756   2.156   1_564  S
O1411     Co1753   2.127       .  S
O1411     Co1755   2.156   1_545  S
C1412      O1750   1.305       .  A
C1412      C1427   1.504       .  S
C1413      O1745   1.269       .  A
C1413      C1470   1.541       .  S
C1414      C1604   1.471       .  S
C1415      C1590   1.522       .  S
O1416      C1424   1.267       .  A
O1416     Co1436   1.985       .  S
O1417      C1425   1.272   1_655  A
O1417     Co1437   1.994       .  S
O1418      C1426   1.314       .  A
O1418     Co1438   2.186       .  S
O1419      C1772   1.277   1_554  A
O1419     Co1439   2.065       .  S
O1420      C1771   1.258   1_554  A
O1420     Co1437   1.932       .  S
O1421      C1427   1.260       .  A
O1421     Co1436   1.971       .  S
O1422     Co1439   1.948       .  S
O1423     Co1438   1.990       .  S
C1424      C1562   1.500       .  S
C1425      C1545   1.461   1_455  S
C1426      O1765   1.258       .  A
C1426      C1456   1.542       .  S
C1427      O1764   1.277       .  A
O1428      C1441   1.287       .  A
O1428     Co1436   2.103       .  S
O1429      C1787   1.320       .  A
O1429     Co1437   2.197   1_556  S
O1430     Co1438   1.995       .  S
O1431     Co1439   1.972       .  S
O1432      C1444   1.258       .  A
O1432     Co1437   1.999       .  S
O1433      C1443   1.259       .  A
O1433     Co1436   1.928       .  S
O1434      C1786   1.267       .  A
O1434     Co1439   2.003   1_556  S
O1435      C1442   1.266       .  A
O1435     Co1438   1.945       .  S
Co1436     O1440   2.105       .  S
Co1439     O1785   2.116   1_554  S
O1440     Co1784   2.116       .  S
C1441      O1779   1.267       .  A
C1441      C1471   1.553       .  S
C1442      O1774   1.320       .  A
C1443      C1688   1.469       .  S
C1444      C1671   1.474       .  S
O1445      C1453   1.268       .  A
O1445     Co1465   1.972       .  S
O1446      C1454   1.281       .  A
O1446     Co1466   2.002       .  S
O1447      C1455   1.327       .  A
O1447     Co1467   2.191       .  S
O1448      C1801   1.264   1_554  A
O1448     Co1468   2.056       .  S
O1449      C1800   1.281       .  A
O1449     Co1466   1.952       .  S
O1450      C1456   1.251       .  A
O1450     Co1465   2.030       .  S
O1451      C1454   1.255       .  A
O1451     Co1468   1.948       .  S
O1452      C1453   1.277       .  A
O1452     Co1467   1.985       .  S
C1453      C1520   1.472       .  S
C1454      C1503   1.487       .  S
C1455      O1794   1.281       .  A
C1456      O1793   1.264       .  A
O1457      C1470   1.288       .  A
O1457     Co1465   1.981       .  S
O1458      C1816   1.270   1_554  A
O1458     Co1466   2.062       .  S
O1459      C1472   1.274       .  A
O1459     Co1467   2.020       .  S
O1460      C1473   1.270       .  A
O1460     Co1468   1.970       .  S
O1461      C1473   1.260       .  A
O1461     Co1466   1.980       .  S
O1462      C1472   1.273       .  A
O1462     Co1465   1.987       .  S
O1463      C1815   1.303   1_554  A
O1463     Co1468   2.090       .  S
O1464      C1471   1.261       .  A
O1464     Co1467   2.045       .  S
Co1465     O1469   2.020       .  S
Co1466     O1814   2.025   1_554  S
Co1467     O1469   2.200       .  S
Co1468     O1814   2.202   1_554  S
O1469     Co1811   2.025       .  S
O1469     Co1813   2.202       .  S
C1470      O1808   1.303       .  A
C1471      O1803   1.270       .  A
C1472      C1646   1.481       .  S
C1473      C1632   1.485       .  S
C1474      C1475   1.429       .  A
C1474      C1479   1.363       .  A
C1474      H2171   1.075       .  S
C1475      C1476   1.423       .  A
C1476      C1477   1.404       .  A
C1476      N1483   1.431       .  S
C1477      C1478   1.400       .  A
C1477      H1482   1.082       .  S
C1478      C1479   1.375       .  A
C1479      N2170   1.436       .  S
N1480      C2169   1.436       .  S
N1480      H1484   1.045       .  S
N1480      H1485   1.046       .  S
H1481      C2164   1.075       .  S
N1483      H1486   1.046       .  S
N1483      H1487   1.045       .  S
C1488      C1489   1.439       .  A
C1488      C1493   1.374       .  A
C1488      H1495   1.077       .  S
C1489      C1490   1.408       .  A
C1490      C1491   1.394       .  A
C1490      N1497   1.431       .  S
C1491      C1492   1.406       .  A
C1491      H1496   1.073       .  S
C1492      C1493   1.385       .  A
C1493      N1494   1.441       .  S
N1494      H1498   1.046       .  S
N1494      H1499   1.043       .  S
N1497      H1500   1.036       .  S
N1497      H1501   1.043       .  S
C1502      C1503   1.380       .  A
C1502      C1507   1.399       .  A
C1502      H1509   1.084       .  S
C1503      C1504   1.423       .  A
C1504      C1505   1.403       .  A
C1504      N1511   1.433       .  S
C1505      C1506   1.402       .  A
C1505      H1510   1.073       .  S
C1506      C1507   1.466       .  A
C1507      N1508   1.442       .  S
N1508      H1512   1.042       .  S
N1508      H1513   1.044       .  S
N1511      H1514   1.042       .  S
N1511      H1515   1.044       .  S
C1516      C1517   1.426       .  A
C1516      C1521   1.417       .  A
C1516      H1523   1.075       .  S
C1517      C1518   1.467       .  A
C1518      C1519   1.386       .  A
C1518      N1525   1.427       .  S
C1519      C1520   1.371       .  A
C1519      H1524   1.086       .  S
C1520      C1521   1.397       .  A
C1521      N1522   1.435       .  S
N1522      H1526   1.044       .  S
N1522      H1527   1.040       .  S
N1525      H1528   1.047       .  S
N1525      H1529   1.046       .  S
C1530      C1531   1.417       .  A
C1530      C2225   1.372       .  A
C1530      H1537   1.085       .  S
C1531      C2222   1.416       .  A
C1532      C2221   1.416       .  A
C1532      C1533   1.364   1_565  A
C1532      N1539   1.434       .  S
C1533      C1534   1.400       .  A
C1533      H1538   1.078       .  S
C1534      C1535   1.411   1_545  A
C1535      C2220   1.372       .  A
C1535      N1536   1.434       .  S
N1536      H2230   1.045       .  S
N1536      H1541   1.046       .  S
N1539      H2232   1.045   1_565  S
H1540      N2226   1.045       .  S
H1542      N2229   1.045       .  S
C1544      C1545   1.397       .  A
C1544      C1549   1.403       .  A
C1544      H1551   1.085       .  S
C1546      C1547   1.404       .  A
C1546      N1553   1.434       .  S
C1547      H1552   1.078       .  S
C1548      C1549   1.424       .  A
C1549      N1550   1.422       .  S
N1550      H1554   1.046       .  S
N1550      H1555   1.044       .  S
N1553      H1556   1.046       .  S
N1553      H1557   1.045       .  S
C1558      C1559   1.416       .  A
C1558      C1563   1.416       .  A
C1558      H1565   1.084       .  S
C1560      C1561   1.401       .  A
C1560      N1567   1.424       .  S
C1561      H1566   1.079       .  S
C1562      C1563   1.424       .  A
C1563      N1564   1.430       .  S
N1564      H1568   1.040       .  S
N1564      H1569   1.045       .  S
N1567      H1570   1.035       .  S
N1567      H1571   1.046       .  S
C1572      C1573   1.416       .  A
C1572      C1577   1.385       .  A
C1572      H1579   1.073       .  S
C1573      C1574   1.419       .  A
C1574      C1575   1.375       .  A
C1574      N1581   1.434       .  S
C1575      C1576   1.410       .  A
C1575      H1580   1.070       .  S
C1576      C1577   1.416       .  A
C1577      N1578   1.436       .  S
N1578      H1582   1.044       .  S
N1578      H1583   1.045       .  S
N1581      H1585   1.046       .  S
C1586      C1587   1.433       .  A
C1586      C1591   1.415       .  A
C1586      H1593   1.068       .  S
C1587      C1588   1.434       .  A
C1588      C1589   1.424       .  A
C1588      N2285   1.430   1_545  S
C1589      C1590   1.414       .  A
C1589      H2284   1.083   1_545  S
C1590      C1591   1.405       .  A
C1591      N1592   1.437       .  S
N1592      H1596   1.045       .  S
N1592      H1597   1.045       .  S
H1594      C2279   1.083       .  S
N1595      C2278   1.430       .  S
N1595      H1598   1.045       .  S
N1595      H1599   1.044       .  S
C1600      C1601   1.443       .  A
C1600      C1605   1.388       .  A
C1600      H1607   1.076       .  S
C1601      C1602   1.423       .  A
C1602      C1603   1.420       .  A
C1602      N1609   1.426   1_545  S
C1603      C1604   1.411       .  A
C1603      H1608   1.082   1_545  S
C1604      C1605   1.385       .  A
C1605      N1606   1.439       .  S
N1606      H1610   1.046       .  S
N1606      H1611   1.044       .  S
N1609      H1612   1.046       .  S
N1609      H1613   1.045       .  S
C1614      C1615   1.413       .  A
C1614      C1619   1.378       .  A
C1614      H1621   1.075       .  S
C1615      C2306   1.421       .  A
C1616      C2305   1.421       .  A
C1616      C1617   1.386   1_565  A
C1616      N1623   1.428       .  S
C1617      C1618   1.409       .  A
C1617      H1622   1.085       .  S
C1618      C2309   1.415   1_545  A
C1619      C2308   1.415       .  A
C1619      N1620   1.433       .  S
N1620      H1624   1.046       .  S
N1620      H2315   1.046       .  S
N1623      H1626   1.046       .  S
N1623      H1627   1.046       .  S
H1625      N2310   1.046       .  S
C1628      C1629   1.428       .  A
C1628      C1633   1.393       .  A
C1628      H1635   1.075       .  S
C1629      C1630   1.439       .  A
C1630      C1631   1.412       .  A
C1630      N1637   1.441       .  S
C1631      C1632   1.410       .  A
C1631      H1636   1.084       .  S
C1632      C1633   1.399       .  A
C1633      N1634   1.432       .  S
N1634      H1638   1.045       .  S
N1634      H1639   1.045       .  S
N1637      H1640   1.037       .  S
N1637      H1641   1.046       .  S
C1642      C1643   1.402       .  A
C1642      C1647   1.399       .  A
C1642      H1649   1.082       .  S
C1643      C1644   1.452       .  A
C1644      C1645   1.409       .  A
C1644      N1651   1.428       .  S
C1645      C1646   1.383       .  A
C1645      H1650   1.084       .  S
C1646      C1647   1.403       .  A
C1647      N1648   1.425       .  S
N1648      H1652   1.046       .  S
N1648      H1653   1.047       .  S
N1651      H1654   1.047       .  S
N1651      H1655   1.037       .  S
C1656      C1657   1.405       .  A
C1656      C1661   1.380       .  A
C1656      H1663   1.079       .  S
C1657      C1658   1.408       .  A
C1658      C1659   1.371       .  A
C1658      N1665   1.432       .  S
C1659      C1660   1.414       .  A
C1659      H1664   1.085       .  S
C1660      C1661   1.428       .  A
C1661      N1662   1.433       .  S
N1662      H1666   1.046       .  S
N1662      H1667   1.046       .  S
N1665      H1668   1.046       .  S
N1665      H1669   1.046       .  S
C1670      C1671   1.376       .  A
C1670      C1675   1.392       .  A
C1670      H1677   1.085       .  S
C1672      C1673   1.404       .  A
C1672      N1679   1.425       .  S
C1673      H1678   1.081       .  S
C1674      C1675   1.454       .  A
C1675      N1676   1.432   1_655  S
N1676      H1680   1.045       .  S
N1676      H1681   1.043   1_455  S
N1679      H1682   1.046       .  S
N1679      H1683   1.045       .  S
C1684      C1689   1.413       .  A
C1684      H1691   1.084       .  S
C1685      C1686   1.418       .  A
C1686      C1687   1.392       .  A
C1686      N1693   1.438       .  S
C1687      C1688   1.403       .  A
C1687      H1692   1.085       .  S
C1689      N1690   1.433       .  S
N1690      H1694   1.043       .  S
N1690      H1695   1.041       .  S
N1693      H1696   1.045       .  S
N1693      H1697   1.046       .  S
C1698      C1699   1.404       .  A
C1698      C1703   1.380       .  A
C1698      H1705   1.081       .  S
C1699      C1700   1.417       .  A
C1700      C1701   1.362       .  A
C1700      N1707   1.435       .  S
C1701      C1702   1.385       .  A
C1701      H1706   1.057       .  S
C1702      C1703   1.411       .  A
C1703      N1704   1.432       .  S
N1704      H1708   1.046       .  S
N1704      H1709   1.045       .  S
N1707      H1711   1.046       .  S
C1712      C1713   1.411       .  A
C1712      C1717   1.369       .  A
C1712      H1719   1.080       .  S
C1713      C1714   1.411       .  A
C1714      C1715   1.370       .  A
C1714      N1721   1.432       .  S
C1715      C1716   1.391       .  A
C1716      C1717   1.404       .  A
C1717      N1718   1.436       .  S
N1718      H1722   1.046       .  S
N1718      H1723   1.043       .  S
N1721      H1724   1.043       .  S
C1726      C2019   1.578   1_455  S
C1726      C2061   1.541   1_455  S
C1727      C1974   1.583       .  S
C1727      C1988   1.584       .  S
C1727      C2002   1.521       .  S
C1727      C2047   1.546       .  S
C1728      C1932   1.631       .  S
C1728      C1946   1.605       .  S
C1728      C1963   1.538       .  S
C1728      C2005   1.550       .  S
C1729      C1893   1.562       .  S
C1729      C1918   1.546       .  S
C1730      C1851   1.591       .  S
C1730      C1862   1.610       .  S
C1730      C1876   1.499       .  S
C1730      C1921   1.551       .  S
C1731      C1820   1.554       .  S
C1731      C1834   1.550       .  S
C1731      C1879   1.519       .  S
C1731      C2058   1.522       .  S
O1732      C1740   1.270       .  A
O1732     Co1752   1.964       .  S
O1733      C1741   1.257       .  A
O1733     Co1753   1.923       .  S
O1734      C1742   1.281       .  A
O1734     Co1754   1.965       .  S
O1735     Co2445   2.041       .  S
O1736     Co1753   2.162       .  S
O1737      C1743   1.274   1_556  A
O1737     Co2442   2.096       .  S
O1738      C1741   1.279       .  A
O1738     Co1755   1.978   1_545  S
O1739      C1740   1.276       .  A
O1739     Co1754   1.973       .  S
C1740      C1837   1.440       .  S
C1741      C1823   1.435       .  S
C1742      C1787   1.564       .  S
C1743      C1800   1.574       .  S
O1744      C1757   1.278       .  A
O1744     Co2442   1.906       .  S
O1745     Co1753   1.957       .  S
O1746      C1759   1.270       .  A
O1746     Co1754   1.990       .  S
O1747      C1760   1.247       .  A
O1747     Co1755   1.945   1_545  S
O1748      C1760   1.270       .  A
O1748     Co1753   2.014       .  S
O1749      C1759   1.269       .  A
O1749     Co1752   1.969       .  S
O1750     Co2445   2.132       .  S
O1751      C1758   1.299       .  A
O1751     Co1754   2.141       .  S
Co1752     O2427   2.096   1_545  S
Co1752     O2434   1.906   1_545  S
Co1752     O1756   1.988       .  S
Co1754     O1756   2.093       .  S
Co1755     O2425   2.041       .  S
Co1755     O2440   2.132       .  S
C1757      C1772   1.504       .  S
C1758      C1815   1.541       .  S
C1759      C1949   1.471       .  S
C1760      C1935   1.522       .  S
O1761      C1769   1.267       .  A
O1761     Co1781   1.985       .  S
O1762      C1770   1.272   1_655  A
O1762     Co1782   1.994       .  S
O1763      C1771   1.314       .  A
O1763     Co1783   2.186       .  S
O1764     Co1784   2.065       .  S
O1765     Co1782   1.932       .  S
O1766      C1772   1.260       .  A
O1766     Co1781   1.971       .  S
O1767     Co1784   1.948       .  S
O1768     Co1783   1.990       .  S
C1769      C1907   1.500       .  S
C1770      C1890   1.461   1_455  S
C1771      C1801   1.542       .  S
O1773      C1786   1.287       .  A
O1773     Co1781   2.103       .  S
O1774     Co1782   2.197       .  S
O1775     Co1783   1.995       .  S
O1776     Co1784   1.972       .  S
O1777      C1789   1.258       .  A
O1777     Co1782   1.999       .  S
O1778      C1788   1.259       .  A
O1778     Co1781   1.928       .  S
O1779     Co1784   2.003       .  S
O1780      C1787   1.266       .  A
O1780     Co1783   1.945       .  S
Co1781     O1785   2.105       .  S
C1786      C1816   1.553       .  S
C1788      C2033   1.469       .  S
C1789      C2016   1.474       .  S
O1790      C1798   1.268       .  A
O1790     Co1810   1.972       .  S
O1791      C1799   1.281       .  A
O1791     Co1811   2.002       .  S
O1792      C1800   1.327   1_556  A
O1792     Co1812   2.191       .  S
O1793     Co1813   2.056       .  S
O1794     Co1811   1.952       .  S
O1795      C1801   1.251       .  A
O1795     Co1810   2.030       .  S
O1796      C1799   1.255       .  A
O1796     Co1813   1.948       .  S
O1797      C1798   1.277       .  A
O1797     Co1812   1.985       .  S
C1798      C1865   1.472       .  S
C1799      C1848   1.487       .  S
O1802      C1815   1.288       .  A
O1802     Co1810   1.981       .  S
O1803     Co1811   2.062       .  S
O1804      C1817   1.274       .  A
O1804     Co1812   2.020       .  S
O1805      C1818   1.270       .  A
O1805     Co1813   1.970       .  S
O1806      C1818   1.260       .  A
O1806     Co1811   1.980       .  S
O1807      C1817   1.273       .  A
O1807     Co1810   1.987       .  S
O1808     Co1813   2.090       .  S
O1809      C1816   1.261       .  A
O1809     Co1812   2.045       .  S
Co1810     O1814   2.020       .  S
Co1812     O1814   2.200       .  S
C1817      C1991   1.481       .  S
C1818      C1977   1.485       .  S
C1819      C1820   1.429       .  A
C1819      C1824   1.363       .  A
C1819      H2516   1.075       .  S
C1820      C1821   1.423       .  A
C1821      C1822   1.404       .  A
C1821      N1828   1.431       .  S
C1822      C1823   1.400       .  A
C1822      H1827   1.082       .  S
C1823      C1824   1.375       .  A
C1824      N2515   1.436       .  S
N1825      C2514   1.436       .  S
N1825      H1829   1.045       .  S
N1825      H1830   1.046       .  S
H1826      C2509   1.075       .  S
N1828      H1831   1.046       .  S
N1828      H1832   1.045       .  S
C1833      C1834   1.439       .  A
C1833      C1838   1.374       .  A
C1833      H1840   1.077       .  S
C1834      C1835   1.408       .  A
C1835      C1836   1.394       .  A
C1835      N1842   1.431       .  S
C1836      C1837   1.406       .  A
C1836      H1841   1.073       .  S
C1837      C1838   1.385       .  A
C1838      N1839   1.441       .  S
N1839      H1843   1.046       .  S
N1839      H1844   1.043       .  S
N1842      H1845   1.036       .  S
N1842      H1846   1.043       .  S
C1847      C1848   1.380       .  A
C1847      C1852   1.399       .  A
C1847      H1854   1.084       .  S
C1848      C1849   1.423       .  A
C1849      C1850   1.403       .  A
C1849      N1856   1.433       .  S
C1850      C1851   1.402       .  A
C1850      H1855   1.073       .  S
C1851      C1852   1.466       .  A
C1852      N1853   1.442       .  S
N1853      H1857   1.042       .  S
N1853      H1858   1.044       .  S
N1856      H1859   1.042       .  S
N1856      H1860   1.044       .  S
C1861      C1862   1.426       .  A
C1861      C1866   1.417       .  A
C1861      H1868   1.075       .  S
C1862      C1863   1.467       .  A
C1863      C1864   1.386       .  A
C1863      N1870   1.427       .  S
C1864      C1865   1.371       .  A
C1864      H1869   1.086       .  S
C1865      C1866   1.397       .  A
C1866      N1867   1.435       .  S
N1867      H1871   1.044       .  S
N1867      H1872   1.040       .  S
N1870      H1873   1.047       .  S
N1870      H1874   1.046       .  S
C1875      C1876   1.417       .  A
C1875      C2570   1.372       .  A
C1875      H1882   1.085       .  S
C1876      C2567   1.416       .  A
C1877      C2566   1.416       .  A
C1877      C1878   1.364   1_565  A
C1877      N1884   1.434       .  S
C1878      C1879   1.400       .  A
C1878      H1883   1.078       .  S
C1879      C1880   1.411   1_545  A
C1880      C2565   1.372       .  A
C1880      N1881   1.434       .  S
N1881      H2575   1.045       .  S
N1881      H1886   1.046       .  S
N1884      H2577   1.045   1_565  S
H1885      N2571   1.045       .  S
H1887      N2574   1.045       .  S
C1889      C1890   1.397       .  A
C1889      C1894   1.403       .  A
C1889      H1896   1.085       .  S
C1891      C1892   1.404       .  A
C1891      N1898   1.434       .  S
C1892      H1897   1.078       .  S
C1893      C1894   1.424       .  A
C1894      N1895   1.422       .  S
N1895      H1899   1.046       .  S
N1895      H1900   1.044       .  S
N1898      H1901   1.046       .  S
N1898      H1902   1.045       .  S
C1903      C1904   1.416       .  A
C1903      C1908   1.416       .  A
C1903      H1910   1.084       .  S
C1905      C1906   1.401       .  A
C1905      N1912   1.424       .  S
C1906      H1911   1.079       .  S
C1907      C1908   1.424       .  A
C1908      N1909   1.430       .  S
N1909      H1913   1.040       .  S
N1909      H1914   1.045       .  S
N1912      H1915   1.035       .  S
N1912      H1916   1.046       .  S
C1917      C1918   1.416       .  A
C1917      C1922   1.385       .  A
C1917      H1924   1.073       .  S
C1918      C1919   1.419       .  A
C1919      C1920   1.375       .  A
C1919      N1926   1.434       .  S
C1920      C1921   1.410       .  A
C1920      H1925   1.070       .  S
C1921      C1922   1.416       .  A
C1922      N1923   1.436       .  S
N1923      H1927   1.044       .  S
N1923      H1928   1.045       .  S
N1926      H1930   1.046       .  S
C1931      C1932   1.433       .  A
C1931      C1936   1.415       .  A
C1931      H1938   1.068       .  S
C1932      C1933   1.434       .  A
C1933      C1934   1.424       .  A
C1933      N2630   1.430   1_545  S
C1934      C1935   1.414       .  A
C1934      H2629   1.083   1_545  S
C1935      C1936   1.405       .  A
C1936      N1937   1.437       .  S
N1937      H1941   1.045       .  S
N1937      H1942   1.045       .  S
H1939      C2624   1.083       .  S
N1940      C2623   1.430       .  S
N1940      H1943   1.045       .  S
N1940      H1944   1.044       .  S
C1945      C1946   1.443       .  A
C1945      C1950   1.388       .  A
C1945      H1952   1.076       .  S
C1946      C1947   1.423       .  A
C1947      C1948   1.420       .  A
C1947      N1954   1.426   1_545  S
C1948      C1949   1.411       .  A
C1948      H1953   1.082   1_545  S
C1949      C1950   1.385       .  A
C1950      N1951   1.439       .  S
N1951      H1955   1.046       .  S
N1951      H1956   1.044       .  S
N1954      H1957   1.046       .  S
N1954      H1958   1.045       .  S
C1959      C1960   1.413       .  A
C1959      C1964   1.378       .  A
C1959      H1966   1.075       .  S
C1960      C2651   1.421       .  A
C1961      C2650   1.421       .  A
C1961      C1962   1.386   1_565  A
C1961      N1968   1.428       .  S
C1962      C1963   1.409       .  A
C1962      H1967   1.085       .  S
C1963      C2654   1.415   1_545  A
C1964      C2653   1.415       .  A
C1964      N1965   1.433       .  S
N1965      H1969   1.046       .  S
N1965      H2660   1.046       .  S
N1968      H1971   1.046       .  S
N1968      H1972   1.046       .  S
H1970      N2655   1.046       .  S
C1973      C1974   1.428       .  A
C1973      C1978   1.393       .  A
C1973      H1980   1.075       .  S
C1974      C1975   1.439       .  A
C1975      C1976   1.412       .  A
C1975      N1982   1.441       .  S
C1976      C1977   1.410       .  A
C1976      H1981   1.084       .  S
C1977      C1978   1.399       .  A
C1978      N1979   1.432       .  S
N1979      H1983   1.045       .  S
N1979      H1984   1.045       .  S
N1982      H1985   1.037       .  S
N1982      H1986   1.046       .  S
C1987      C1988   1.402       .  A
C1987      C1992   1.399       .  A
C1987      H1994   1.082       .  S
C1988      C1989   1.452       .  A
C1989      C1990   1.409       .  A
C1989      N1996   1.428       .  S
C1990      C1991   1.383       .  A
C1990      H1995   1.084       .  S
C1991      C1992   1.403       .  A
C1992      N1993   1.425       .  S
N1993      H1997   1.046       .  S
N1993      H1998   1.047       .  S
N1996      H1999   1.047       .  S
N1996      H2000   1.037       .  S
C2001      C2002   1.405       .  A
C2001      C2006   1.380       .  A
C2001      H2008   1.079       .  S
C2002      C2003   1.408       .  A
C2003      C2004   1.371       .  A
C2003      N2010   1.432       .  S
C2004      C2005   1.414       .  A
C2004      H2009   1.085       .  S
C2005      C2006   1.428       .  A
C2006      N2007   1.433       .  S
N2007      H2011   1.046       .  S
N2007      H2012   1.046       .  S
N2010      H2013   1.046       .  S
N2010      H2014   1.046       .  S
C2015      C2016   1.376       .  A
C2015      C2020   1.392       .  A
C2015      H2022   1.085       .  S
C2017      C2018   1.404       .  A
C2017      N2024   1.425       .  S
C2018      H2023   1.081       .  S
C2019      C2020   1.454       .  A
C2020      N2021   1.432   1_655  S
N2021      H2025   1.045       .  S
N2021      H2026   1.043   1_455  S
N2024      H2027   1.046       .  S
N2024      H2028   1.045       .  S
C2029      C2034   1.413       .  A
C2029      H2036   1.084       .  S
C2030      C2031   1.418       .  A
C2031      C2032   1.392       .  A
C2031      N2038   1.438       .  S
C2032      C2033   1.403       .  A
C2032      H2037   1.085       .  S
C2034      N2035   1.433       .  S
N2035      H2039   1.043       .  S
N2035      H2040   1.041       .  S
N2038      H2041   1.045       .  S
N2038      H2042   1.046       .  S
C2043      C2044   1.404       .  A
C2043      C2048   1.380       .  A
C2043      H2050   1.081       .  S
C2044      C2045   1.417       .  A
C2045      C2046   1.362       .  A
C2045      N2052   1.435       .  S
C2046      C2047   1.385       .  A
C2046      H2051   1.057       .  S
C2047      C2048   1.411       .  A
C2048      N2049   1.432       .  S
N2049      H2053   1.046       .  S
N2049      H2054   1.045       .  S
N2052      H2056   1.046       .  S
C2057      C2058   1.411       .  A
C2057      C2062   1.369       .  A
C2057      H2064   1.080       .  S
C2058      C2059   1.411       .  A
C2059      C2060   1.370       .  A
C2059      N2066   1.432       .  S
C2060      C2061   1.391       .  A
C2061      C2062   1.404       .  A
C2062      N2063   1.436       .  S
N2063      H2067   1.046       .  S
N2063      H2068   1.043       .  S
N2066      H2069   1.043       .  S
C2071      C2364   1.578   1_455  S
C2071      C2406   1.541   1_455  S
C2072      C2319   1.583       .  S
C2072      C2333   1.584       .  S
C2072      C2347   1.521       .  S
C2072      C2392   1.546       .  S
C2073      C2277   1.631       .  S
C2073      C2291   1.605       .  S
C2073      C2308   1.538       .  S
C2073      C2350   1.550       .  S
C2074      C2238   1.562       .  S
C2074      C2263   1.546       .  S
C2075      C2196   1.591       .  S
C2075      C2207   1.610       .  S
C2075      C2221   1.499       .  S
C2075      C2266   1.551       .  S
C2076      C2165   1.554       .  S
C2076      C2179   1.550       .  S
C2076      C2224   1.519       .  S
C2076      C2403   1.522       .  S
O2077      C2085   1.270       .  A
O2077     Co2097   1.964       .  S
O2078      C2086   1.257       .  A
O2078     Co2098   1.923       .  S
O2079      C2087   1.281       .  A
O2079     Co2099   1.965       .  S
O2080      C2433   1.271       .  A
O2081      C2432   1.306       .  A
O2081     Co2098   2.162   1_556  S
O2082      C2088   1.274       .  A
O2083      C2086   1.279       .  A
O2083     Co2100   1.978       .  S
O2084      C2085   1.276       .  A
O2084     Co2099   1.973       .  S
C2085      C2182   1.440       .  S
C2086      C2168   1.435       .  S
C2087      O2426   1.306       .  A
C2087      C2132   1.564       .  S
C2088      O2425   1.271       .  A
C2088      C2145   1.574       .  S
O2089      C2102   1.278       .  A
O2090      C2448   1.269   1_554  A
O2090     Co2098   1.957       .  S
O2091      C2104   1.270       .  A
O2091     Co2099   1.990       .  S
O2092      C2105   1.247       .  A
O2092     Co2100   1.945       .  S
O2093      C2105   1.270       .  A
O2093     Co2098   2.014       .  S
O2094      C2104   1.269       .  A
O2094     Co2097   1.969       .  S
O2095      C2447   1.305   1_554  A
O2096      C2103   1.299       .  A
O2096     Co2099   2.141       .  S
Co2097     O2101   1.988       .  S
Co2098     O2446   2.127   1_554  S
Co2099     O2101   2.093       .  S
Co2100     O2446   2.156   1_554  S
O2101     Co2443   2.127       .  S
O2101     Co2445   2.156       .  S
C2102      O2440   1.305       .  A
C2102      C2117   1.504       .  S
C2103      O2435   1.269       .  A
C2103      C2160   1.541       .  S
C2104      C2294   1.471       .  S
C2105      C2280   1.522       .  S
O2106      C2114   1.267       .  A
O2106     Co2126   1.985       .  S
O2107      C2115   1.272   1_655  A
O2107     Co2127   1.994       .  S
O2108      C2116   1.314       .  A
O2108     Co2128   2.186       .  S
O2109      C2462   1.277   1_554  A
O2109     Co2129   2.065       .  S
O2110      C2461   1.258   1_554  A
O2110     Co2127   1.932       .  S
O2111      C2117   1.260       .  A
O2111     Co2126   1.971       .  S
O2112     Co2129   1.948       .  S
O2113     Co2128   1.990       .  S
C2114      C2252   1.500       .  S
C2115      C2235   1.461   1_455  S
C2116      O2455   1.258       .  A
C2116      C2146   1.542       .  S
C2117      O2454   1.277       .  A
O2118      C2131   1.287       .  A
O2118     Co2126   2.103       .  S
O2119      C2477   1.320       .  A
O2119     Co2127   2.197   1_556  S
O2120     Co2128   1.995       .  S
O2121     Co2129   1.972       .  S
O2122      C2134   1.258       .  A
O2122     Co2127   1.999       .  S
O2123      C2133   1.259       .  A
O2123     Co2126   1.928       .  S
O2124      C2476   1.267       .  A
O2124     Co2129   2.003   1_556  S
O2125      C2132   1.266       .  A
O2125     Co2128   1.945       .  S
Co2126     O2130   2.105       .  S
Co2129     O2475   2.116   1_554  S
O2130     Co2474   2.116       .  S
C2131      O2469   1.267       .  A
C2131      C2161   1.553       .  S
C2132      O2464   1.320       .  A
C2133      C2378   1.469       .  S
C2134      C2361   1.474       .  S
O2135      C2143   1.268       .  A
O2135     Co2155   1.972       .  S
O2136      C2144   1.281       .  A
O2136     Co2156   2.002       .  S
O2137      C2145   1.327       .  A
O2137     Co2157   2.191       .  S
O2138      C2491   1.264   1_554  A
O2138     Co2158   2.056       .  S
O2139      C2490   1.281       .  A
O2139     Co2156   1.952       .  S
O2140      C2146   1.251       .  A
O2140     Co2155   2.030       .  S
O2141      C2144   1.255       .  A
O2141     Co2158   1.948       .  S
O2142      C2143   1.277       .  A
O2142     Co2157   1.985       .  S
C2143      C2210   1.472       .  S
C2144      C2193   1.487       .  S
C2145      O2484   1.281       .  A
C2146      O2483   1.264       .  A
O2147      C2160   1.288       .  A
O2147     Co2155   1.981       .  S
O2148      C2506   1.270   1_554  A
O2148     Co2156   2.062       .  S
O2149      C2162   1.274       .  A
O2149     Co2157   2.020       .  S
O2150      C2163   1.270       .  A
O2150     Co2158   1.970       .  S
O2151      C2163   1.260       .  A
O2151     Co2156   1.980       .  S
O2152      C2162   1.273       .  A
O2152     Co2155   1.987       .  S
O2153      C2505   1.303   1_554  A
O2153     Co2158   2.090       .  S
O2154      C2161   1.261       .  A
O2154     Co2157   2.045       .  S
Co2155     O2159   2.020       .  S
Co2156     O2504   2.025   1_554  S
Co2157     O2159   2.200       .  S
Co2158     O2504   2.202   1_554  S
O2159     Co2501   2.025       .  S
O2159     Co2503   2.202       .  S
C2160      O2498   1.303       .  A
C2161      O2493   1.270       .  A
C2162      C2336   1.481       .  S
C2163      C2322   1.485       .  S
C2164      C2165   1.429       .  A
C2164      C2169   1.363       .  A
C2165      C2166   1.423       .  A
C2166      C2167   1.404       .  A
C2166      N2173   1.431       .  S
C2167      C2168   1.400       .  A
C2167      H2172   1.082       .  S
C2168      C2169   1.375       .  A
N2170      H2174   1.045       .  S
N2170      H2175   1.046       .  S
N2173      H2176   1.046       .  S
N2173      H2177   1.045       .  S
C2178      C2179   1.439       .  A
C2178      C2183   1.374       .  A
C2178      H2185   1.077       .  S
C2179      C2180   1.408       .  A
C2180      C2181   1.394       .  A
C2180      N2187   1.431       .  S
C2181      C2182   1.406       .  A
C2181      H2186   1.073       .  S
C2182      C2183   1.385       .  A
C2183      N2184   1.441       .  S
N2184      H2188   1.046       .  S
N2184      H2189   1.043       .  S
N2187      H2190   1.036       .  S
N2187      H2191   1.043       .  S
C2192      C2193   1.380       .  A
C2192      C2197   1.399       .  A
C2192      H2199   1.084       .  S
C2193      C2194   1.423       .  A
C2194      C2195   1.403       .  A
C2194      N2201   1.433       .  S
C2195      C2196   1.402       .  A
C2195      H2200   1.073       .  S
C2196      C2197   1.466       .  A
C2197      N2198   1.442       .  S
N2198      H2202   1.042       .  S
N2198      H2203   1.044       .  S
N2201      H2204   1.042       .  S
N2201      H2205   1.044       .  S
C2206      C2207   1.426       .  A
C2206      C2211   1.417       .  A
C2206      H2213   1.075       .  S
C2207      C2208   1.467       .  A
C2208      C2209   1.386       .  A
C2208      N2215   1.427       .  S
C2209      C2210   1.371       .  A
C2209      H2214   1.086       .  S
C2210      C2211   1.397       .  A
C2211      N2212   1.435       .  S
N2212      H2216   1.044       .  S
N2212      H2217   1.040       .  S
N2215      H2218   1.047       .  S
N2215      H2219   1.046       .  S
C2220      C2221   1.417       .  A
C2220      H2227   1.085       .  S
C2222      C2223   1.364       .  A
C2222      N2229   1.434       .  S
C2223      C2224   1.400       .  A
C2223      H2228   1.078       .  S
C2224      C2225   1.411       .  A
C2225      N2226   1.434       .  S
N2226      H2231   1.046       .  S
C2234      C2235   1.397       .  A
C2234      C2239   1.403       .  A
C2234      H2241   1.085       .  S
C2236      C2237   1.404       .  A
C2236      N2243   1.434       .  S
C2237      H2242   1.078       .  S
C2238      C2239   1.424       .  A
C2239      N2240   1.422       .  S
N2240      H2244   1.046       .  S
N2240      H2245   1.044       .  S
N2243      H2246   1.046       .  S
N2243      H2247   1.045       .  S
C2248      C2249   1.416       .  A
C2248      C2253   1.416       .  A
C2248      H2255   1.084       .  S
C2250      C2251   1.401       .  A
C2250      N2257   1.424       .  S
C2251      H2256   1.079       .  S
C2252      C2253   1.424       .  A
C2253      N2254   1.430       .  S
N2254      H2258   1.040       .  S
N2254      H2259   1.045       .  S
N2257      H2260   1.035       .  S
N2257      H2261   1.046       .  S
C2262      C2263   1.416       .  A
C2262      C2267   1.385       .  A
C2262      H2269   1.073       .  S
C2263      C2264   1.419       .  A
C2264      C2265   1.375       .  A
C2264      N2271   1.434       .  S
C2265      C2266   1.410       .  A
C2265      H2270   1.070       .  S
C2266      C2267   1.416       .  A
C2267      N2268   1.436       .  S
N2268      H2272   1.044       .  S
N2268      H2273   1.045       .  S
N2271      H2275   1.046       .  S
C2276      C2277   1.433       .  A
C2276      C2281   1.415       .  A
C2276      H2283   1.068       .  S
C2277      C2278   1.434       .  A
C2278      C2279   1.424       .  A
C2279      C2280   1.414       .  A
C2280      C2281   1.405       .  A
C2281      N2282   1.437       .  S
N2282      H2286   1.045       .  S
N2282      H2287   1.045       .  S
N2285      H2288   1.045       .  S
N2285      H2289   1.044       .  S
C2290      C2291   1.443       .  A
C2290      C2295   1.388       .  A
C2290      H2297   1.076       .  S
C2291      C2292   1.423       .  A
C2292      C2293   1.420       .  A
C2292      N2299   1.426       .  S
C2293      C2294   1.411       .  A
C2293      H2298   1.082       .  S
C2294      C2295   1.385       .  A
C2295      N2296   1.439       .  S
N2296      H2300   1.046       .  S
N2296      H2301   1.044       .  S
N2299      H2302   1.046       .  S
N2299      H2303   1.045       .  S
C2304      C2305   1.413       .  A
C2304      C2309   1.378       .  A
C2304      H2311   1.075       .  S
C2306      C2307   1.386       .  A
C2306      N2313   1.428       .  S
C2307      C2308   1.409       .  A
C2307      H2312   1.085       .  S
C2309      N2310   1.433       .  S
N2310      H2314   1.046       .  S
N2313      H2316   1.046       .  S
N2313      H2317   1.046       .  S
C2318      C2319   1.428       .  A
C2318      C2323   1.393       .  A
C2318      H2325   1.075       .  S
C2319      C2320   1.439       .  A
C2320      C2321   1.412       .  A
C2320      N2327   1.441       .  S
C2321      C2322   1.410       .  A
C2321      H2326   1.084       .  S
C2322      C2323   1.399       .  A
C2323      N2324   1.432       .  S
N2324      H2328   1.045       .  S
N2324      H2329   1.045       .  S
N2327      H2330   1.037       .  S
N2327      H2331   1.046       .  S
C2332      C2333   1.402       .  A
C2332      C2337   1.399       .  A
C2332      H2339   1.082       .  S
C2333      C2334   1.452       .  A
C2334      C2335   1.409       .  A
C2334      N2341   1.428       .  S
C2335      C2336   1.383       .  A
C2335      H2340   1.084       .  S
C2336      C2337   1.403       .  A
C2337      N2338   1.425       .  S
N2338      H2342   1.046       .  S
N2338      H2343   1.047       .  S
N2341      H2344   1.047       .  S
N2341      H2345   1.037       .  S
C2346      C2347   1.405       .  A
C2346      C2351   1.380       .  A
C2346      H2353   1.079       .  S
C2347      C2348   1.408       .  A
C2348      C2349   1.371       .  A
C2348      N2355   1.432       .  S
C2349      C2350   1.414       .  A
C2349      H2354   1.085       .  S
C2350      C2351   1.428       .  A
C2351      N2352   1.433       .  S
N2352      H2356   1.046       .  S
N2352      H2357   1.046       .  S
N2355      H2358   1.046       .  S
N2355      H2359   1.046       .  S
C2360      C2361   1.376       .  A
C2360      C2365   1.392       .  A
C2360      H2367   1.085       .  S
C2362      C2363   1.404       .  A
C2362      N2369   1.425       .  S
C2363      H2368   1.081       .  S
C2364      C2365   1.454       .  A
C2365      N2366   1.432   1_655  S
N2366      H2370   1.045       .  S
N2366      H2371   1.043   1_455  S
N2369      H2372   1.046       .  S
N2369      H2373   1.045       .  S
C2374      C2379   1.413       .  A
C2374      H2381   1.084       .  S
C2375      C2376   1.418       .  A
C2376      C2377   1.392       .  A
C2376      N2383   1.438       .  S
C2377      C2378   1.403       .  A
C2377      H2382   1.085       .  S
C2379      N2380   1.433       .  S
N2380      H2384   1.043       .  S
N2380      H2385   1.041       .  S
N2383      H2386   1.045       .  S
N2383      H2387   1.046       .  S
C2388      C2389   1.404       .  A
C2388      C2393   1.380       .  A
C2388      H2395   1.081       .  S
C2389      C2390   1.417       .  A
C2390      C2391   1.362       .  A
C2390      N2397   1.435       .  S
C2391      C2392   1.385       .  A
C2391      H2396   1.057       .  S
C2392      C2393   1.411       .  A
C2393      N2394   1.432       .  S
N2394      H2398   1.046       .  S
N2394      H2399   1.045       .  S
N2397      H2401   1.046       .  S
C2402      C2403   1.411       .  A
C2402      C2407   1.369       .  A
C2402      H2409   1.080       .  S
C2403      C2404   1.411       .  A
C2404      C2405   1.370       .  A
C2404      N2411   1.432       .  S
C2405      C2406   1.391       .  A
C2406      C2407   1.404       .  A
C2407      N2408   1.436       .  S
N2408      H2412   1.046       .  S
N2408      H2413   1.043       .  S
N2411      H2414   1.043       .  S
C2416      C2709   1.578   1_455  S
C2416      C2751   1.541   1_455  S
C2417      C2664   1.583       .  S
C2417      C2678   1.584       .  S
C2417      C2692   1.521       .  S
C2417      C2737   1.546       .  S
C2418      C2622   1.631       .  S
C2418      C2636   1.605       .  S
C2418      C2653   1.538       .  S
C2418      C2695   1.550       .  S
C2419      C2583   1.562       .  S
C2419      C2608   1.546       .  S
C2420      C2541   1.591       .  S
C2420      C2552   1.610       .  S
C2420      C2566   1.499       .  S
C2420      C2611   1.551       .  S
C2421      C2510   1.554       .  S
C2421      C2524   1.550       .  S
C2421      C2569   1.519       .  S
C2421      C2748   1.522       .  S
O2422      C2430   1.270       .  A
O2422     Co2442   1.964       .  S
O2423      C2431   1.257       .  A
O2423     Co2443   1.923       .  S
O2424      C2432   1.281       .  A
O2424     Co2444   1.965       .  S
O2426     Co2443   2.162       .  S
O2427      C2433   1.274   1_556  A
O2428      C2431   1.279       .  A
O2428     Co2445   1.978       .  S
O2429      C2430   1.276       .  A
O2429     Co2444   1.973       .  S
C2430      C2527   1.440       .  S
C2431      C2513   1.435       .  S
C2432      C2477   1.564       .  S
C2433      C2490   1.574       .  S
O2434      C2447   1.278       .  A
O2435     Co2443   1.957       .  S
O2436      C2449   1.270       .  A
O2436     Co2444   1.990       .  S
O2437      C2450   1.247       .  A
O2437     Co2445   1.945       .  S
O2438      C2450   1.270       .  A
O2438     Co2443   2.014       .  S
O2439      C2449   1.269       .  A
O2439     Co2442   1.969       .  S
O2441      C2448   1.299       .  A
O2441     Co2444   2.141       .  S
Co2442     O2446   1.988       .  S
Co2444     O2446   2.093       .  S
C2447      C2462   1.504       .  S
C2448      C2505   1.541       .  S
C2449      C2639   1.471       .  S
C2450      C2625   1.522       .  S
O2451      C2459   1.267       .  A
O2451     Co2471   1.985       .  S
O2452      C2460   1.272   1_655  A
O2452     Co2472   1.994       .  S
O2453      C2461   1.314       .  A
O2453     Co2473   2.186       .  S
O2454     Co2474   2.065       .  S
O2455     Co2472   1.932       .  S
O2456      C2462   1.260       .  A
O2456     Co2471   1.971       .  S
O2457     Co2474   1.948       .  S
O2458     Co2473   1.990       .  S
C2459      C2597   1.500       .  S
C2460      C2580   1.461   1_455  S
C2461      C2491   1.542       .  S
O2463      C2476   1.287       .  A
O2463     Co2471   2.103       .  S
O2464     Co2472   2.197       .  S
O2465     Co2473   1.995       .  S
O2466     Co2474   1.972       .  S
O2467      C2479   1.258       .  A
O2467     Co2472   1.999       .  S
O2468      C2478   1.259       .  A
O2468     Co2471   1.928       .  S
O2469     Co2474   2.003       .  S
O2470      C2477   1.266       .  A
O2470     Co2473   1.945       .  S
Co2471     O2475   2.105       .  S
C2476      C2506   1.553       .  S
C2478      C2723   1.469       .  S
C2479      C2706   1.474       .  S
O2480      C2488   1.268       .  A
O2480     Co2500   1.972       .  S
O2481      C2489   1.281       .  A
O2481     Co2501   2.002       .  S
O2482      C2490   1.327   1_556  A
O2482     Co2502   2.191       .  S
O2483     Co2503   2.056       .  S
O2484     Co2501   1.952       .  S
O2485      C2491   1.251       .  A
O2485     Co2500   2.030       .  S
O2486      C2489   1.255       .  A
O2486     Co2503   1.948       .  S
O2487      C2488   1.277       .  A
O2487     Co2502   1.985       .  S
C2488      C2555   1.472       .  S
C2489      C2538   1.487       .  S
O2492      C2505   1.288       .  A
O2492     Co2500   1.981       .  S
O2493     Co2501   2.062       .  S
O2494      C2507   1.274       .  A
O2494     Co2502   2.020       .  S
O2495      C2508   1.270       .  A
O2495     Co2503   1.970       .  S
O2496      C2508   1.260       .  A
O2496     Co2501   1.980       .  S
O2497      C2507   1.273       .  A
O2497     Co2500   1.987       .  S
O2498     Co2503   2.090       .  S
O2499      C2506   1.261       .  A
O2499     Co2502   2.045       .  S
Co2500     O2504   2.020       .  S
Co2502     O2504   2.200       .  S
C2507      C2681   1.481       .  S
C2508      C2667   1.485       .  S
C2509      C2510   1.429       .  A
C2509      C2514   1.363       .  A
C2510      C2511   1.423       .  A
C2511      C2512   1.404       .  A
C2511      N2518   1.431       .  S
C2512      C2513   1.400       .  A
C2512      H2517   1.082       .  S
C2513      C2514   1.375       .  A
N2515      H2519   1.045       .  S
N2515      H2520   1.046       .  S
N2518      H2521   1.046       .  S
N2518      H2522   1.045       .  S
C2523      C2524   1.439       .  A
C2523      C2528   1.374       .  A
C2523      H2530   1.077       .  S
C2524      C2525   1.408       .  A
C2525      C2526   1.394       .  A
C2525      N2532   1.431       .  S
C2526      C2527   1.406       .  A
C2526      H2531   1.073       .  S
C2527      C2528   1.385       .  A
C2528      N2529   1.441       .  S
N2529      H2533   1.046       .  S
N2529      H2534   1.043       .  S
N2532      H2535   1.036       .  S
N2532      H2536   1.043       .  S
C2537      C2538   1.380       .  A
C2537      C2542   1.399       .  A
C2537      H2544   1.084       .  S
C2538      C2539   1.423       .  A
C2539      C2540   1.403       .  A
C2539      N2546   1.433       .  S
C2540      C2541   1.402       .  A
C2540      H2545   1.073       .  S
C2541      C2542   1.466       .  A
C2542      N2543   1.442       .  S
N2543      H2547   1.042       .  S
N2543      H2548   1.044       .  S
N2546      H2549   1.042       .  S
N2546      H2550   1.044       .  S
C2551      C2552   1.426       .  A
C2551      C2556   1.417       .  A
C2551      H2558   1.075       .  S
C2552      C2553   1.467       .  A
C2553      C2554   1.386       .  A
C2553      N2560   1.427       .  S
C2554      C2555   1.371       .  A
C2554      H2559   1.086       .  S
C2555      C2556   1.397       .  A
C2556      N2557   1.435       .  S
N2557      H2561   1.044       .  S
N2557      H2562   1.040       .  S
N2560      H2563   1.047       .  S
N2560      H2564   1.046       .  S
C2565      C2566   1.417       .  A
C2565      H2572   1.085       .  S
C2567      C2568   1.364       .  A
C2567      N2574   1.434       .  S
C2568      C2569   1.400       .  A
C2568      H2573   1.078       .  S
C2569      C2570   1.411       .  A
C2570      N2571   1.434       .  S
N2571      H2576   1.046       .  S
C2579      C2580   1.397       .  A
C2579      C2584   1.403       .  A
C2579      H2586   1.085       .  S
C2581      C2582   1.404       .  A
C2581      N2588   1.434       .  S
C2582      H2587   1.078       .  S
C2583      C2584   1.424       .  A
C2584      N2585   1.422       .  S
N2585      H2589   1.046       .  S
N2585      H2590   1.044       .  S
N2588      H2591   1.046       .  S
N2588      H2592   1.045       .  S
C2593      C2594   1.416       .  A
C2593      C2598   1.416       .  A
C2593      H2600   1.084       .  S
C2595      C2596   1.401       .  A
C2595      N2602   1.424       .  S
C2596      H2601   1.079       .  S
C2597      C2598   1.424       .  A
C2598      N2599   1.430       .  S
N2599      H2603   1.040       .  S
N2599      H2604   1.045       .  S
N2602      H2605   1.035       .  S
N2602      H2606   1.046       .  S
C2607      C2608   1.416       .  A
C2607      C2612   1.385       .  A
C2607      H2614   1.073       .  S
C2608      C2609   1.419       .  A
C2609      C2610   1.375       .  A
C2609      N2616   1.434       .  S
C2610      C2611   1.410       .  A
C2610      H2615   1.070       .  S
C2611      C2612   1.416       .  A
C2612      N2613   1.436       .  S
N2613      H2617   1.044       .  S
N2613      H2618   1.045       .  S
N2616      H2620   1.046       .  S
C2621      C2622   1.433       .  A
C2621      C2626   1.415       .  A
C2621      H2628   1.068       .  S
C2622      C2623   1.434       .  A
C2623      C2624   1.424       .  A
C2624      C2625   1.414       .  A
C2625      C2626   1.405       .  A
C2626      N2627   1.437       .  S
N2627      H2631   1.045       .  S
N2627      H2632   1.045       .  S
N2630      H2633   1.045       .  S
N2630      H2634   1.044       .  S
C2635      C2636   1.443       .  A
C2635      C2640   1.388       .  A
C2635      H2642   1.076       .  S
C2636      C2637   1.423       .  A
C2637      C2638   1.420       .  A
C2637      N2644   1.426       .  S
C2638      C2639   1.411       .  A
C2638      H2643   1.082       .  S
C2639      C2640   1.385       .  A
C2640      N2641   1.439       .  S
N2641      H2645   1.046       .  S
N2641      H2646   1.044       .  S
N2644      H2647   1.046       .  S
N2644      H2648   1.045       .  S
C2649      C2650   1.413       .  A
C2649      C2654   1.378       .  A
C2649      H2656   1.075       .  S
C2651      C2652   1.386       .  A
C2651      N2658   1.428       .  S
C2652      C2653   1.409       .  A
C2652      H2657   1.085       .  S
C2654      N2655   1.433       .  S
N2655      H2659   1.046       .  S
N2658      H2661   1.046       .  S
N2658      H2662   1.046       .  S
C2663      C2664   1.428       .  A
C2663      C2668   1.393       .  A
C2663      H2670   1.075       .  S
C2664      C2665   1.439       .  A
C2665      C2666   1.412       .  A
C2665      N2672   1.441       .  S
C2666      C2667   1.410       .  A
C2666      H2671   1.084       .  S
C2667      C2668   1.399       .  A
C2668      N2669   1.432       .  S
N2669      H2673   1.045       .  S
N2669      H2674   1.045       .  S
N2672      H2675   1.037       .  S
N2672      H2676   1.046       .  S
C2677      C2678   1.402       .  A
C2677      C2682   1.399       .  A
C2677      H2684   1.082       .  S
C2678      C2679   1.452       .  A
C2679      C2680   1.409       .  A
C2679      N2686   1.428       .  S
C2680      C2681   1.383       .  A
C2680      H2685   1.084       .  S
C2681      C2682   1.403       .  A
C2682      N2683   1.425       .  S
N2683      H2687   1.046       .  S
N2683      H2688   1.047       .  S
N2686      H2689   1.047       .  S
N2686      H2690   1.037       .  S
C2691      C2692   1.405       .  A
C2691      C2696   1.380       .  A
C2691      H2698   1.079       .  S
C2692      C2693   1.408       .  A
C2693      C2694   1.371       .  A
C2693      N2700   1.432       .  S
C2694      C2695   1.414       .  A
C2694      H2699   1.085       .  S
C2695      C2696   1.428       .  A
C2696      N2697   1.433       .  S
N2697      H2701   1.046       .  S
N2697      H2702   1.046       .  S
N2700      H2703   1.046       .  S
N2700      H2704   1.046       .  S
C2705      C2706   1.376       .  A
C2705      C2710   1.392       .  A
C2705      H2712   1.085       .  S
C2707      C2708   1.404       .  A
C2707      N2714   1.425       .  S
C2708      H2713   1.081       .  S
C2709      C2710   1.454       .  A
C2710      N2711   1.432   1_655  S
N2711      H2715   1.045       .  S
N2711      H2716   1.043   1_455  S
N2714      H2717   1.046       .  S
N2714      H2718   1.045       .  S
C2719      C2724   1.413       .  A
C2719      H2726   1.084       .  S
C2720      C2721   1.418       .  A
C2721      C2722   1.392       .  A
C2721      N2728   1.438       .  S
C2722      C2723   1.403       .  A
C2722      H2727   1.085       .  S
C2724      N2725   1.433       .  S
N2725      H2729   1.043       .  S
N2725      H2730   1.041       .  S
N2728      H2731   1.045       .  S
N2728      H2732   1.046       .  S
C2733      C2734   1.404       .  A
C2733      C2738   1.380       .  A
C2733      H2740   1.081       .  S
C2734      C2735   1.417       .  A
C2735      C2736   1.362       .  A
C2735      N2742   1.435       .  S
C2736      C2737   1.385       .  A
C2736      H2741   1.057       .  S
C2737      C2738   1.411       .  A
C2738      N2739   1.432       .  S
N2739      H2743   1.046       .  S
N2739      H2744   1.045       .  S
N2742      H2746   1.046       .  S
C2747      C2748   1.411       .  A
C2747      C2752   1.369       .  A
C2747      H2754   1.080       .  S
C2748      C2749   1.411       .  A
C2749      C2750   1.370       .  A
C2749      N2756   1.432       .  S
C2750      C2751   1.391       .  A
C2751      C2752   1.404       .  A
C2752      N2753   1.436       .  S
N2753      H2757   1.046       .  S
N2753      H2758   1.043       .  S
N2756      H2759   1.043       .  S
