geometry optimzed in LAMMPS
_audit_creation_date              2020-12-01 
_audit_creation_method            'lammps2cif' 
_symmetry_space_group_name_H-M    'P1' 
_symmetry_Int_Tables_number       1 
_symmetry_cell_setting            triclinic 
loop_ 
_symmetry_equiv_pos_as_xyz 
  x,y,z 
_cell_length_a                    32.82832538 
_cell_length_b                    24.149873553709842 
_cell_length_c                    36.35730399441694 
_cell_angle_alpha                 89.80174855757635 
_cell_angle_beta                  92.22540962766118 
_cell_angle_gamma                 95.01297557837854 
loop_ 
_atom_site_label 
_atom_site_type_symbol 
_atom_site_fract_x 
_atom_site_fract_y 
_atom_site_fract_z 
_atom_site_charge 
N1          N  0.23624078  0.94329343  0.29765009    -0.00100
C2          C  0.22077103  0.93027361  0.33081994     0.02500
C3          C  0.23005712  0.97378832  0.35507709    -0.20400
C4          C  0.25146346  0.01495146  0.33565050    -0.20600
C5          C  0.25470910  0.99532383  0.30004755     0.02400
H6          H  0.22035305  0.97688059  0.38303843     0.16200
H7          H  0.26113067  0.05620642  0.34592852     0.16200
N8          N  0.24073581  0.90494034  0.26944490    -0.00100
C9          C  0.25858716  0.85632259  0.27304516     0.02500
C10         C  0.25340783  0.82705094  0.24033247    -0.20400
C11         C  0.23221894  0.85896536  0.21621683    -0.20600
C12         C  0.22487547  0.90707441  0.23472611     0.02400
H13         H  0.26373488  0.78678796  0.23445363     0.16200
H14         H  0.22410227  0.84860361  0.18778197     0.16200
N15         N  0.22820807  0.00433269  0.21176521    -0.00100
C16         C  0.22216989  0.01846653  0.17572314     0.02500
C17         C  0.19226929  0.98277298  0.15906535    -0.20400
C18         C  0.18183623  0.94284413  0.18487235    -0.20600
C19         C  0.20646553  0.95449191  0.21643595     0.02400
H20         H  0.18201787  0.98265085  0.13041403     0.16200
H21         H  0.16347171  0.90427040  0.17888163     0.16200
N22         N  0.24202071  0.04256904  0.24032599    -0.00100
C23         C  0.24523102  0.09888202  0.23614005     0.02500
C24         C  0.27708267  0.12303893  0.25771042    -0.20400
C25         C  0.29202290  0.08070483  0.27799749    -0.20600
C26         C  0.26803882  0.03185963  0.26901409     0.02400
H27         H  0.28650301  0.16698352  0.26033301     0.16200
H28         H  0.31354202  0.08676134  0.30126629     0.16200
N29         N  0.22288043  0.43311968  0.22911637    -0.00100
C30         C  0.20450487  0.41704221  0.19641970     0.02500
C31         C  0.20916664  0.45944371  0.17103238    -0.20400
C32         C  0.23084697  0.50304557  0.18892341    -0.20600
C33         C  0.23881291  0.48637140  0.22501457     0.02400
H34         H  0.19656347  0.45990015  0.14310391     0.16200
H35         H  0.23698024  0.54405324  0.17726299     0.16200
N36         N  0.23403570  0.39603553  0.25698386    -0.00100
C37         C  0.25362876  0.34926373  0.25202547     0.02500
C38         C  0.25284657  0.31806050  0.28398616    -0.20400
C39         C  0.23261377  0.34655385  0.30905687    -0.20600
C40         C  0.22123755  0.39462945  0.29193822     0.02400
H41         H  0.26559555  0.27874453  0.28886708     0.16200
H42         H  0.22840431  0.33430811  0.33740352     0.16200
N43         N  0.22708895  0.53040372  0.28487235    -0.00100
C44         C  0.21970471  0.58463647  0.28868561     0.02500
C45         C  0.24274301  0.61730502  0.26472156    -0.20400
C46         C  0.26320067  0.58150154  0.24445273    -0.20600
C47         C  0.25023231  0.52745373  0.25493238     0.02400
H48         H  0.24353259  0.66188995  0.26121110     0.16200
H49         H  0.28037919  0.59359074  0.22046810     0.16200
N50         N  0.22598092  0.49161885  0.31428300    -0.00100
C51         C  0.22842372  0.50670758  0.35037286     0.02500
C52         C  0.20478431  0.46958523  0.37091737    -0.20400
C53         C  0.18958960  0.42821423  0.34701029    -0.20600
C54         C  0.20545111  0.44050594  0.31264428     0.02400
H55         H  0.20131298  0.47038536  0.40038263     0.16200
H56         H  0.17415345  0.38899845  0.35534947     0.16200
N57         N  0.49581677  0.90843843  0.48054405    -0.00100
C58         C  0.50125565  0.89782547  0.44448740     0.02500
C59         C  0.53247089  0.93298603  0.43134516    -0.20400
C60         C  0.54429040  0.96926762  0.45969742    -0.20600
C61         C  0.51860436  0.95642895  0.48875446     0.02400
H62         H  0.54266719  0.93562105  0.40339769     0.16200
H63         H  0.56371718  0.00744765  0.45654857     0.16200
N64         N  0.46351477  0.89082268  0.98680498    -0.00100
C65         C  0.98288592  0.84070082  0.48736089     0.02500
C66         C  0.97318402  0.80577825  0.51648724    -0.20400
C67         C  0.93604227  0.81658346  0.03852587    -0.20600
C68         C  0.95675956  0.86875602  0.03356418     0.02400
H69         H  0.98424752  0.76565270  0.52237998     0.16200
H70         H  0.91440082  0.80509094  0.05953245     0.16200
N71         N  0.45724832  0.02177903  0.01846287    -0.00100
C72         C  0.45088950  0.07568595  0.02605062     0.02500
C73         C  0.47497639  0.11133993  0.00471080    -0.20400
C74         C  0.49572777  0.07871788  0.98257705    -0.20600
C75         C  0.48266077  0.02342207  0.98963905     0.02400
H76         H  0.47677338  0.15626514  0.00464066     0.16200
H77         H  0.50276813  0.06270977  0.45819871     0.16200
N78         N  0.45090049  0.97699094  0.04357385    -0.00100
C79         C  0.99310940  0.97104075  0.10230825     0.02500
C80         C  0.98082251  0.92758486  0.12495646    -0.20400
C81         C  0.96339234  0.88592810  0.10221770    -0.20600
C82         C  0.96511448  0.90560307  0.06620842     0.02400
H83         H  0.98537692  0.92557028  0.15455419     0.16200
H84         H  0.95263610  0.84463948  0.11116805     0.16200
N85         N  0.46742435  0.50544097  0.50639295    -0.00100
C86         C  0.45571043  0.55811868  0.50163786     0.02500
C87         C  0.45654010  0.59661185  0.03442229    -0.20400
C88         C  0.48022919  0.56706208  0.05792867    -0.20600
C89         C  0.49273589  0.52303957  0.03800389     0.02400
H90         H  0.44158982  0.63312905  0.04145506     0.16200
H91         H  0.48577348  0.57524537  0.08702349     0.16200
N92         N  0.46424256  0.46267051  0.47968981    -0.00100
C93         C  0.00067491  0.50681766  0.44123972     0.02500
C94         C  0.99633868  0.46373947  0.41621134    -0.20400
C95         C  0.97868063  0.41846637  0.43458485    -0.20600
C96         C  0.97260184  0.43513594  0.47043903     0.02400
H97         H  0.00686146  0.46406061  0.38836908     0.16200
H98         H  0.97303225  0.37701297  0.42326785     0.16200
N99         N  0.48832626  0.42670461  0.05901998    -0.00100
C100        C  0.48987477  0.41353161  0.09535083     0.02500
C101        C  0.51901191  0.44808004  0.11396758    -0.20400
C102        C  0.53339035  0.48662520  0.08860236    -0.20600
C103        C  0.51130417  0.47561953  0.05556372     0.02400
H104        H  0.52608615  0.44866323  0.14328927     0.16200
H105        H  0.55169190  0.52488036  0.09563968     0.16200
N106        N  0.47860781  0.38745009  0.03025942    -0.00100
C107        C  0.98095395  0.31977643  0.02792866     0.02500
C108        C  0.96736089  0.28654318  0.99843257    -0.20400
C109        C  0.94120907  0.34372223  0.48901187    -0.20600
C110        C  0.95950195  0.39540899  0.50009932     0.02400
H111        H  0.97512493  0.24485645  0.99275139     0.16200
H112        H  0.92345892  0.33463203  0.46370177     0.16200
O113        O  0.09700241  0.74716302  0.44673524    -0.69600
O114        O  0.15728567  0.67044139  0.37078311    -0.70500
O115        O  0.16518649  0.77774378  0.40282541    -0.59200
O116        O  0.08924605  0.64087908  0.41573324    -0.67600
O117        O  0.04812035  0.66800265  0.37048076    -0.67100
O118        O  0.12350543  0.80675943  0.35858693    -0.58400
O119        O  0.11675093  0.70152761  0.32641713    -0.70900
O120        O  0.05481644  0.77577794  0.40281501    -0.69700
Cu121      Cu  0.12865174  0.70803864  0.41049810     1.04600
Cu122      Cu  0.08420961  0.73903595  0.36306689     1.04300
C123        C  0.06584191  0.77244799  0.43682526     0.96600
C124        C  0.14735490  0.67534552  0.33662457     0.95800
C125        C  0.15674826  0.81314921  0.37817900     0.87900
C126        C  0.05647637  0.63321427  0.39565996     0.94200
O127        O  0.34924728  0.63600112  0.35228406    -0.69600
O128        O  0.42123899  0.76875396  0.38936524    -0.70500
O129        O  0.40789744  0.65514742  0.41130463    -0.59200
O130        O  0.36139533  0.74850103  0.33034164    -0.67600
O131        O  0.31181034  0.76980760  0.36616792    -0.67100
O132        O  0.35978583  0.67948750  0.44777900    -0.58400
O133        O  0.37153727  0.79136764  0.42464128    -0.70900
O134        O  0.30042098  0.65641129  0.38925411    -0.69700
Cu135      Cu  0.38665882  0.70148682  0.36952196     1.04600
Cu136      Cu  0.33416105  0.72508329  0.40819033     1.04300
C137        C  0.31379065  0.62495756  0.36503970     0.96600
C138        C  0.40783686  0.80060294  0.41327399     0.95800
C139        C  0.39113929  0.65313798  0.44251816     0.87900
C140        C  0.32894672  0.77284298  0.33516611     0.94200
O141        O  0.16263324  0.26114274  0.11987667    -0.69600
O142        O  0.10261754  0.11530265  0.09418282    -0.70500
O143        O  0.09782087  0.22491262  0.06954104    -0.59200
O144        O  0.16696667  0.15175104  0.14610028    -0.67600
O145        O  0.11952377  0.16032622  0.18714329    -0.67100
O146        O  0.05450611  0.24299010  0.11243998    -0.58400
O147        O  0.05546668  0.12990914  0.13440380    -0.70900
O148        O  0.12023196  0.27314343  0.16477969    -0.69700
Cu149      Cu  0.13413362  0.18780331  0.10603334     1.04600
Cu150      Cu  0.08580792  0.20216224  0.15121470     1.04300
C151        C  0.15167562  0.28956213  0.14663222     0.96600
C152        C  0.06913006  0.10011927  0.10939004     0.95800
C153        C  0.06519251  0.24540137  0.07899561     0.87900
C154        C  0.15391459  0.14426355  0.17860980     0.94200
O155        O  0.40166565  0.16775659  0.11164948    -0.69600
O156        O  0.35471430  0.24940754  0.19357786    -0.70500
O157        O  0.34557954  0.13901217  0.16688961    -0.59200
O158        O  0.41175326  0.27821946  0.13802245    -0.67600
O159        O  0.36077496  0.30106421  0.10067168    -0.67100
O160        O  0.29427686  0.15990598  0.12925970    -0.58400
O161        O  0.30343764  0.27199968  0.15650649    -0.70900
O162        O  0.35171381  0.19152267  0.07340010    -0.69700
Cu163      Cu  0.38009009  0.20794205  0.15386219     1.04600
Cu164      Cu  0.32561056  0.23187431  0.11367461     1.04300
C165        C  0.38460969  0.16776849  0.07946853     0.96600
C166        C  0.32167147  0.27308316  0.18827103     0.95800
C167        C  0.30973680  0.12722587  0.15273955     0.87900
C168        C  0.39722122  0.31085161  0.11411629     0.94200
C169        C  0.00976912  0.30296078  0.05758963    -0.13100
C170        C  0.03892617  0.26914975  0.05028565    -0.28200
H171        H  0.00753402  0.31835966  0.08535224     0.16000
H172        H  0.04335245  0.25735397  0.02200206     0.16500
C173        C  0.46146870  0.37202769  0.11361310    -0.13100
C174        C  0.42323027  0.35855249  0.10010243    -0.28200
H175        H  0.47254246  0.35198377  0.13839164     0.16000
H176        H  0.41166011  0.38084930  0.07644843     0.16500
C177        C  0.02834648  0.58336992  0.40148607    -0.13100
C178        C  0.02391194  0.56110564  0.43520819    -0.28200
H179        H  0.01106537  0.56482987  0.37788055     0.16000
H180        H  0.03867362  0.58250287  0.45906381     0.16500
C181        C  0.40898748  0.62297505  0.47373837    -0.13100
C182        C  0.43200898  0.58004199  0.46966708    -0.28200
H183        H  0.40345716  0.63765298  0.50114378     0.16000
H184        H  0.43392778  0.56306845  0.44239957     0.16500
C185        C  0.01534973  0.02330055  0.11556337    -0.13100
C186        C  0.04617349  0.04818792  0.09687277    -0.28200
H187        H  0.00791744  0.03947960  0.14209926     0.16000
H188        H  0.05554274  0.02918637  0.07187870     0.16500
C189        C  0.40457786  0.14276235  0.04879978    -0.13100
C190        C  0.42236041  0.09505044  0.05321445    -0.28200
H191        H  0.40651047  0.16544085  0.02299772     0.16000
H192        H  0.41564040  0.07127701  0.07779676     0.16500
C193        C  0.01169908  0.82842917  0.45855739    -0.13100
C194        C  0.04137659  0.79446338  0.46560126    -0.28200
H195        H  0.00863976  0.84639285  0.43136418     0.16000
H196        H  0.04693637  0.77988549  0.49348573     0.16500
C197        C  0.47384336  0.85880199  0.42139275    -0.13100
C198        C  0.43451105  0.84691090  0.42986535    -0.28200
H199        H  0.48636935  0.83878918  0.39817311     0.16000
H200        H  0.42214412  0.86937084  0.45213172     0.16500
C201        C  0.25383249  0.55529982  0.36624699    -0.13100
C202        C  0.28850176  0.57564277  0.35081207    -0.28200
H203        H  0.24445646  0.57331865  0.39157775     0.16000
H204        H  0.29901852  0.55504915  0.32686549     0.16500
C205        C  0.18991457  0.60526499  0.31409876    -0.13100
C206        C  0.17268672  0.65303982  0.30860607    -0.28200
H207        H  0.18005743  0.58014562  0.33736038     0.16000
H208        H  0.17750259  0.67665475  0.28344972     0.16500
C209        C  0.27362587  0.33274368  0.21803203    -0.13100
C210        C  0.30422976  0.29892035  0.22018980    -0.28200
H211        H  0.26316938  0.34704548  0.19131272     0.16000
H212        H  0.31693455  0.28815294  0.24702255     0.16500
C213        C  0.18032070  0.36324860  0.18951890    -0.13100
C214        C  0.17569576  0.34219282  0.15538862    -0.28200
H215        H  0.16710288  0.34038540  0.21259478     0.16000
H216        H  0.19209939  0.36275676  0.13306168     0.16500
C217        C  0.21845138  0.13129790  0.21225651    -0.13100
C218        C  0.17844666  0.11612135  0.20645770    -0.28200
H219        H  0.23221010  0.16821666  0.19878317     0.16000
H220        H  0.16363074  0.08228524  0.22218678     0.16500
C221        C  0.28635172  0.07630052  0.16552820    -0.13100
C222        C  0.24712196  0.06186733  0.15535492    -0.28200
H223        H  0.30092592  0.05243975  0.18691733     0.16000
H224        H  0.23249213  0.08350076  0.13292229     0.16500
C225        C  0.28070708  0.83644228  0.30647928    -0.13100
C226        C  0.31040591  0.80164503  0.30358691    -0.28200
H227        H  0.27232053  0.84911084  0.33352255     0.16000
H228        H  0.32090909  0.79209730  0.27655555     0.16500
C229        C  0.18605539  0.86139321  0.37203803    -0.13100
C230        C  0.19282493  0.88045570  0.33790747    -0.28200
H231        H  0.20380743  0.87950213  0.39551950     0.16000
H232        H  0.17752070  0.85882092  0.31437229     0.16500
N233        N  0.20728060  0.91587140  0.79935396    -0.00100
C234        C  0.18826735  0.90197455  0.83083470     0.02500
C235        C  0.19437636  0.94526632  0.85568685    -0.20400
C236        C  0.21763535  0.98708373  0.83837609    -0.20600
C237        C  0.22514091  0.96806876  0.80341643     0.02400
H238        H  0.18165283  0.94756876  0.88259046     0.16200
H239        H  0.22599371  0.02819666  0.84948720     0.16200
N240        N  0.21293700  0.87886717  0.77064595    -0.00100
C241        C  0.22928059  0.82927960  0.77409767     0.02500
C242        C  0.22411319  0.80071364  0.74110982    -0.20400
C243        C  0.20426436  0.83402708  0.71697486    -0.20600
C244        C  0.19766803  0.88209942  0.73584494     0.02400
H245        H  0.23391483  0.76023582  0.73496691     0.16200
H246        H  0.19699124  0.82488269  0.68822819     0.16200
N247        N  0.20838513  0.97866351  0.71407372    -0.00100
C248        C  0.20612908  0.99307213  0.67785068     0.02500
C249        C  0.17513287  0.96120083  0.65957930    -0.20400
C250        C  0.15991882  0.92305954  0.68476595    -0.20600
C251        C  0.18299128  0.93172851  0.71749826     0.02400
H252        H  0.16690516  0.96233218  0.63049319     0.16200
H253        H  0.13942313  0.88670447  0.67782568     0.16200
N254        N  0.22072855  0.01656274  0.74313410    -0.00100
C255        C  0.22548086  0.07267049  0.73882603     0.02500
C256        C  0.25487571  0.09603970  0.76329995    -0.20400
C257        C  0.26630309  0.05317588  0.78531711    -0.20600
C258        C  0.24277871  0.00490200  0.77416923     0.02400
H259        H  0.26431391  0.13981858  0.76687258     0.16200
H260        H  0.28469841  0.05866444  0.81061799     0.16200
N261        N  0.21446531  0.40410232  0.72869239    -0.00100
C262        C  0.19695647  0.38908242  0.69553395     0.02500
C263        C  0.20432843  0.43086636  0.67015485    -0.20400
C264        C  0.22675315  0.47329443  0.68866343    -0.20600
C265        C  0.23228965  0.45648692  0.72511617     0.02400
H266        H  0.19288852  0.43185628  0.64186884     0.16200
H267        H  0.23451139  0.51401743  0.67713458     0.16200
N268        N  0.22474187  0.36552728  0.75592099    -0.00100
C269        C  0.24279368  0.31777250  0.74991418     0.02500
C270        C  0.24037481  0.28458609  0.78094732    -0.20400
C271        C  0.22063278  0.31275119  0.80651508    -0.20600
C272        C  0.21117000  0.36263673  0.79061221     0.02400
H273        H  0.25165593  0.24412465  0.78482703     0.16200
H274        H  0.21538541  0.29882546  0.83438112     0.16200
N275        N  0.21618161  0.49849691  0.78452317    -0.00100
C276        C  0.20708147  0.55206917  0.78851139     0.02500
C277        C  0.23025353  0.58641569  0.76557468    -0.20400
C278        C  0.25267591  0.55245833  0.74577614    -0.20600
C279        C  0.24083215  0.49770249  0.75543800     0.02400
H280        H  0.23004363  0.63097870  0.76251464     0.16200
H281        H  0.27076275  0.56613949  0.72265570     0.16200
N282        N  0.21585463  0.45957265  0.81383248    -0.00100
C283        C  0.21794934  0.47465056  0.84991323     0.02500
C284        C  0.19493361  0.43683849  0.87048619    -0.20400
C285        C  0.18044276  0.39509811  0.84663732    -0.20600
C286        C  0.19595978  0.40801782  0.81223803     0.02400
H287        H  0.19117950  0.43773610  0.89991264     0.16200
H288        H  0.16528320  0.35568830  0.85493870     0.16200
N289        N  0.46055813  0.93048382  0.95851966    -0.00100
C290        C  0.45322737  0.91628152  0.92258975     0.02500
C291        C  0.46985873  0.95697875  0.89989719    -0.20400
C292        C  0.48689693  0.99870495  0.92256523    -0.20600
C293        C  0.48033773  0.98220761  0.95882845     0.02400
H294        H  0.46876549  0.95703228  0.87010554     0.16200
H295        H  0.50018524  0.03835240  0.91289558     0.16200
N296        N  0.48442134  0.86627032  0.50644091    -0.00100
C297        C  0.98386557  0.80983617  0.99873224     0.02500
C298        C  0.95363590  0.77933922  0.01698833    -0.20400
C299        C  0.94709892  0.83236204  0.53747824    -0.20600
C300        C  0.94141051  0.88313503  0.52075301     0.02400
H301        H  0.94717779  0.73465311  0.01683812     0.16200
H302        H  0.93606340  0.81758281  0.56371633     0.16200
N303        N  0.47626720  0.00068198  0.53507775    -0.00100
C304        C  0.45482496  0.04651398  0.53470239     0.02500
C305        C  0.46373338  0.07790892  0.50373200    -0.20400
C306        C  0.49116032  0.05043853  0.48473896    -0.20600
C307        C  0.49847754  0.00280754  0.50456987     0.02400
H308        H  0.45178938  0.11670940  0.49567061     0.16200
H309        H  0.51514902  0.09462009  0.96091691     0.16200
N310        N  0.47888368  0.96210470  0.56405044    -0.00100
C311        C  0.95210590  0.98385839  0.58537486     0.02500
C312        C  0.92192886  0.94961820  0.60092028    -0.20400
C313        C  0.90471582  0.91630554  0.57279715    -0.20600
C314        C  0.92625385  0.92972957  0.54119564     0.02400
H315        H  0.91524760  0.94630464  0.62979323     0.16200
H316        H  0.88409783  0.87947309  0.57680655     0.16200
N317        N  0.47736613  0.52516937  0.00320133    -0.00100
C318        C  0.45503295  0.56979617  0.00079417     0.02500
C319        C  0.46930007  0.59056989  0.53157521    -0.20400
C320        C  0.48923854  0.55720187  0.55538196    -0.20600
C321        C  0.48745979  0.50462900  0.53967781     0.02400
H322        H  0.46504985  0.63393566  0.53598702     0.16200
H323        H  0.50154584  0.56980027  0.58239092     0.16200
N324        N  0.48562805  0.49032294  0.97405085    -0.00100
C325        C  0.96987889  0.47686627  0.93721527     0.02500
C326        C  0.94248678  0.44685690  0.91370903    -0.20400
C327        C  0.91872064  0.41202813  0.93573585    -0.20600
C328        C  0.93399656  0.41944700  0.97185515     0.02400
H329        H  0.94110336  0.44769117  0.88394533     0.16200
H330        H  0.89738734  0.37837355  0.92552212     0.16200
N331        N  0.47111753  0.40859936  0.56271162    -0.00100
C332        C  0.47072575  0.39327159  0.59880355     0.02500
C333        C  0.50005201  0.42491444  0.61927457    -0.20400
C334        C  0.51755736  0.46325562  0.59551165    -0.20600
C335        C  0.49737355  0.45504639  0.56134046     0.02400
H336        H  0.50719988  0.42144235  0.64845871     0.16200
H337        H  0.53904595  0.49797950  0.60367417     0.16200
N338        N  0.46718971  0.36856917  0.53415935    -0.00100
C339        C  0.98322242  0.33252321  0.53653418     0.02500
C340        C  0.95716984  0.30423297  0.51110702    -0.20400
C341        C  0.94261202  0.31728041  0.97682635    -0.20600
C342        C  0.94203239  0.36909837  0.99344226     0.02400
H343        H  0.95237295  0.25973437  0.50731211     0.16200
H344        H  0.92972074  0.30436940  0.95007539     0.16200
O345        O  0.06551003  0.70740262  0.93827287    -0.69600
O346        O  0.13646355  0.63477171  0.86790131    -0.70500
O347        O  0.13598236  0.74306542  0.89849159    -0.59200
O348        O  0.06566215  0.60027568  0.90830795    -0.67600
O349        O  0.02757407  0.62164433  0.85934357    -0.67100
O350        O  0.09531669  0.76755726  0.85207270    -0.58400
O351        O  0.09838599  0.66233472  0.82060132    -0.70900
O352        O  0.02397862  0.72657967  0.89111005    -0.69700
Cu353      Cu  0.10240585  0.67047711  0.90482238     1.04600
Cu354      Cu  0.05996045  0.69542958  0.85412240     1.04300
C355        C  0.03262970  0.72636559  0.92567041     0.96600
C356        C  0.12920227  0.63851867  0.83318318     0.95800
C357        C  0.12690456  0.77759291  0.87348010     0.87900
C358        C  0.03484109  0.58927039  0.88617315     0.94200
O359        O  0.33317351  0.61438634  0.85165089    -0.69600
O360        O  0.39337191  0.75767324  0.88705571    -0.70500
O361        O  0.39176883  0.64467186  0.90933093    -0.59200
O362        O  0.33507038  0.72674668  0.82920355    -0.67600
O363        O  0.28486532  0.74200746  0.86608641    -0.67100
O364        O  0.34125345  0.65831138  0.94625352    -0.58400
O365        O  0.34314372  0.77055841  0.92444352    -0.70900
O366        O  0.28264842  0.62829468  0.88846528    -0.69700
Cu367      Cu  0.36509498  0.68542800  0.86799761     1.04600
Cu368      Cu  0.31117038  0.70018200  0.90757857     1.04300
C369        C  0.29834498  0.59885108  0.86447978     0.96600
C370        C  0.37785161  0.78640438  0.91158054     0.95800
C371        C  0.37556474  0.63920437  0.94065962     0.87900
C372        C  0.30125901  0.74715485  0.83478698     0.94200
O373        O  0.14955703  0.23392134  0.61939172    -0.69600
O374        O  0.08165822  0.09278916  0.59547635    -0.70500
O375        O  0.08247982  0.20283662  0.57000120    -0.59200
O376        O  0.14889471  0.12441039  0.64631969    -0.67600
O377        O  0.10253096  0.13679270  0.68774493    -0.67100
O378        O  0.04263826  0.22709622  0.61414081    -0.58400
O379        O  0.03579491  0.11366199  0.63535316    -0.70900
O380        O  0.10957876  0.24956905  0.66549364    -0.69700
Cu381      Cu  0.11722605  0.16264332  0.60641805     1.04600
Cu382      Cu  0.07109959  0.18233699  0.65227730     1.04300
C383        C  0.14083259  0.26345561  0.64647186     0.96600
C384        C  0.04704238  0.08241275  0.60995221     0.95800
C385        C  0.05234611  0.22812947  0.58042800     0.87900
C386        C  0.13616210  0.11855470  0.67903280     0.94200
O387        O  0.39352281  0.13000695  0.61686633    -0.69600
O388        O  0.34436079  0.21874357  0.69322713    -0.70500
O389        O  0.33501970  0.10630989  0.67148832    -0.59200
O390        O  0.40182499  0.24409847  0.63753797    -0.67600
O391        O  0.35112165  0.26145674  0.59816827    -0.67100
O392        O  0.28488757  0.12516641  0.63193977    -0.58400
O393        O  0.29358617  0.23859555  0.65465599    -0.70900
O394        O  0.34386315  0.14838439  0.57667903    -0.69700
Cu395      Cu  0.37043396  0.17425117  0.65610933     1.04600
Cu396      Cu  0.31658237  0.19399481  0.61392551     1.04300
C397        C  0.37686665  0.12553013  0.58461218     0.96600
C398        C  0.31128993  0.24166366  0.68671057     0.95800
C399        C  0.29909171  0.09459703  0.65725319     0.87900
C400        C  0.38687401  0.27422097  0.61219358     0.94200
C401        C  0.01197901  0.30504295  0.56192757    -0.13100
C402        C  0.02771519  0.25753482  0.55321453    -0.28200
H403        H  0.02249001  0.32413029  0.58777086     0.16000
H404        H  0.02272748  0.24018662  0.52575550     0.16500
C405        C  0.44575796  0.34526713  0.61431850    -0.13100
C406        C  0.41071799  0.32373465  0.59791513    -0.28200
H407        H  0.45635157  0.32790556  0.64022455     0.16000
H408        H  0.39893487  0.34309363  0.57315749     0.16500
C409        C  0.00567877  0.54084228  0.89289184    -0.13100
C410        C  0.00343191  0.51798214  0.92655689    -0.28200
H411        H  0.98276310  0.52861734  0.87146113     0.16000
H412        H  0.02529447  0.53291062  0.94826002     0.16500
C413        C  0.39709113  0.61337288  0.97161273    -0.13100
C414        C  0.43101820  0.58673717  0.96790748    -0.28200
H415        H  0.38525449  0.61843438  0.99877459     0.16000
H416        H  0.44132462  0.57840965  0.94066779     0.16500
C417        C  0.98145164  0.02315208  0.60638894    -0.13100
C418        C  0.01941500  0.03596841  0.59477319    -0.28200
H419        H  0.97135271  0.04239140  0.63101414     0.16000
H420        H  0.02947827  0.01447776  0.57098212     0.16500
C421        C  0.39731100  0.09678729  0.55565716    -0.13100
C422        C  0.42719519  0.06307621  0.56342624    -0.28200
H423        H  0.38942492  0.10665286  0.52724218     0.16000
H424        H  0.43258846  0.05041853  0.59166369     0.16500
C425        C  0.01452652  0.78568093  0.97618684    -0.13100
C426        C  0.00337463  0.74625479  0.95107630    -0.28200
H427        H  0.04587054  0.80439997  0.97770432     0.16000
H428        H  0.97127346  0.73197839  0.94682541     0.16500
C429        C  0.43181158  0.86365670  0.90874081    -0.13100
C430        C  0.39992808  0.83813939  0.92580619    -0.28200
H431        H  0.44095173  0.84759739  0.88271582     0.16000
H432        H  0.38885752  0.85664847  0.95027857     0.16500
C433        C  0.24169196  0.52457279  0.86568596    -0.13100
C434        C  0.27608349  0.54693306  0.85065332    -0.28200
H435        H  0.23095179  0.54245455  0.89052619     0.16000
H436        H  0.28803667  0.52687581  0.82716166     0.16500
C437        C  0.17579006  0.57078688  0.81325455    -0.13100
C438        C  0.15754584  0.61773122  0.80710333    -0.28200
H439        H  0.16576727  0.54493498  0.83615040     0.16000
H440        H  0.16298729  0.64143851  0.78207354     0.16500
C441        C  0.26285328  0.30189429  0.71576669    -0.13100
C442        C  0.29330497  0.26803080  0.71808483    -0.28200
H443        H  0.25272103  0.31647389  0.68903016     0.16000
H444        H  0.30559799  0.25725919  0.74509277     0.16500
C445        C  0.17104146  0.33683735  0.68848062    -0.13100
C446        C  0.16706275  0.31446391  0.65474822    -0.28200
H447        H  0.15598740  0.31593408  0.71142431     0.16000
H448        H  0.18495475  0.33291734  0.63260154     0.16500
C449        C  0.20020051  0.10523362  0.71368068    -0.13100
C450        C  0.16025051  0.09016350  0.70701250    -0.28200
H451        H  0.21462729  0.14197474  0.70051465     0.16000
H452        H  0.14491255  0.05663323  0.72265532     0.16500
C453        C  0.27335989  0.04673765  0.67153013    -0.13100
C454        C  0.23451228  0.03418458  0.65913546    -0.28200
H455        H  0.28553645  0.02390404  0.69467040     0.16000
H456        H  0.22268208  0.05523707  0.63506452     0.16500
C457        C  0.25109406  0.80872369  0.80731095    -0.13100
C458        C  0.28087355  0.77440621  0.80374339    -0.28200
H459        H  0.24311737  0.82150769  0.83447743     0.16000
H460        H  0.29106363  0.76543214  0.77649906     0.16500
C461        C  0.15364229  0.82908391  0.86919791    -0.13100
C462        C  0.16102186  0.85069998  0.83580836    -0.28200
H463        H  0.16972368  0.84726783  0.89352240     0.16000
H464        H  0.14770744  0.82936512  0.81134909     0.16500
N465        N  0.70439755  0.90605365  0.29376752    -0.00100
C466        C  0.68673410  0.89286876  0.32596520     0.02500
C467        C  0.69237728  0.93742958  0.34983985    -0.20400
C468        C  0.71399241  0.97932606  0.33118188    -0.20600
C469        C  0.72100222  0.95898266  0.29647742     0.02400
H470        H  0.68043832  0.94031589  0.37702450     0.16200
H471        H  0.72196855  0.02107486  0.34137217     0.16200
N472        N  0.70996492  0.86836845  0.26545070    -0.00100
C473        C  0.72776906  0.81979903  0.26909162     0.02500
C474        C  0.72376643  0.79133790  0.23601294    -0.20400
C475        C  0.70322840  0.82373311  0.21167518    -0.20600
C476        C  0.69508738  0.87122351  0.23047125     0.02400
H477        H  0.73476584  0.75154159  0.22995694     0.16200
H478        H  0.69638462  0.81437956  0.18289491     0.16200
N479        N  0.70232522  0.96765644  0.20743628    -0.00100
C480        C  0.69901724  0.98060513  0.17103868     0.02500
C481        C  0.66823799  0.94707966  0.15378682    -0.20400
C482        C  0.65455422  0.90921911  0.17989526    -0.20600
C483        C  0.67834585  0.91972099  0.21211441     0.02400
H484        H  0.65965019  0.94641146  0.12474584     0.16200
H485        H  0.63490143  0.87175830  0.17377686     0.16200
N486        N  0.71687104  0.00611235  0.23563024    -0.00100
C487        C  0.72355010  0.06203312  0.23050996     0.02500
C488        C  0.75371178  0.08440646  0.25460220    -0.20400
C489        C  0.76384751  0.04155441  0.27713159    -0.20600
C490        C  0.73887553  0.99423692  0.26667050     0.02400
H491        H  0.76451739  0.12780929  0.25762227     0.16200
H492        H  0.78249236  0.04678168  0.30230804     0.16200
N493        N  0.71593111  0.39633304  0.22825846    -0.00100
C494        C  0.70340590  0.38161049  0.19342588     0.02500
C495        C  0.72081412  0.41868327  0.16851156    -0.20400
C496        C  0.74392753  0.45834184  0.18889485    -0.20600
C497        C  0.73914853  0.44554624  0.22601714     0.02400
H498        H  0.71594956  0.41874850  0.13891647     0.16200
H499        H  0.75869049  0.49578410  0.17728275     0.16200
N500        N  0.72048095  0.35632833  0.25619502    -0.00100
C501        C  0.73440507  0.30517569  0.25124732     0.02500
C502        C  0.72292753  0.27062592  0.28006747    -0.20400
C503        C  0.70207842  0.30125139  0.30340555    -0.20600
C504        C  0.70122022  0.35428637  0.28854908     0.02400
H505        H  0.72907662  0.22767009  0.28403422     0.16200
H506        H  0.69103960  0.28661977  0.32964979     0.16200
N507        N  0.71533683  0.49072108  0.28290147    -0.00100
C508        C  0.70463685  0.54370655  0.28696368     0.02500
C509        C  0.72590645  0.57888015  0.26314188    -0.20400
C510        C  0.74894426  0.54631828  0.24296635    -0.20600
C511        C  0.74017250  0.49128466  0.25382953     0.02400
H512        H  0.72448567  0.62326325  0.26013047     0.16200
H513        H  0.76679891  0.56137799  0.22006290     0.16200
N514        N  0.71528819  0.45128254  0.31181962    -0.00100
C515        C  0.71946054  0.46665775  0.34786837     0.02500
C516        C  0.69431387  0.43238161  0.36902677    -0.20400
C517        C  0.67595822  0.39245224  0.34568136    -0.20600
C518        C  0.69143590  0.40248395  0.31093951     0.02400
H519        H  0.69059765  0.43515657  0.39839324     0.16200
H520        H  0.65725401  0.35602565  0.35441209     0.16200
N521        N  0.95822242  0.92620987  0.46115630    -0.00100
C522        C  0.94780126  0.91251459  0.42555734     0.02500
C523        C  0.95638265  0.95708845  0.40275913    -0.20400
C524        C  0.97202410  0.00008395  0.42504745    -0.20600
C525        C  0.97318772  0.98032975  0.46109764     0.02400
H526        H  0.95080327  0.95865516  0.37325576     0.16200
H527        H  0.98012566  0.04201026  0.41567999     0.16200
N528        N  0.98403998  0.86480959  0.00670009    -0.00100
C529        C  0.48595126  0.81113049  0.49939375     0.02500
C530        C  0.45594326  0.77997085  0.51753732    -0.20400
C531        C  0.44226439  0.83267454  0.03136190    -0.20600
C532        C  0.43904738  0.88494185  0.01584366     0.02400
H533        H  0.45029795  0.73516067  0.51771244     0.16200
H534        H  0.42867563  0.81638380  0.05624179     0.16200
N535        N  0.98001306  0.99757617  0.03828216    -0.00100
C536        C  0.96031419  0.04468704  0.03984865     0.02500
C537        C  0.97028802  0.07832452  0.01011978    -0.20400
C538        C  0.99660007  0.05074134  0.98985813    -0.20600
C539        C  0.00214700  0.00086501  0.00773902     0.02400
H540        H  0.95965824  0.11851255  0.00361649     0.16200
H541        H  0.01953543  0.08448951  0.46368067     0.16200
N542        N  0.98301134  0.95817612  0.06665711    -0.00100
C543        C  0.45201844  0.98461659  0.08057926     0.02500
C544        C  0.42174817  0.95105615  0.09654047    -0.20400
C545        C  0.40355834  0.91836618  0.06856932    -0.20600
C546        C  0.42470068  0.93151369  0.03672595     0.02400
H547        H  0.41543736  0.94800525  0.12550217     0.16200
H548        H  0.38236791  0.88216441  0.07271175     0.16200
N549        N  0.97772759  0.52463913  0.50285602    -0.00100
C550        C  0.95420915  0.56802532  0.50036832     0.02500
C551        C  0.98349421  0.59095198  0.02207161    -0.20400
C552        C  0.00171271  0.55442386  0.04495557    -0.20600
C553        C  0.98875007  0.50074516  0.03305802     0.02400
H554        H  0.98551855  0.63572256  0.02487821     0.16200
H555        H  0.01891439  0.56631284  0.07007475     0.16200
N556        N  0.98596363  0.48938015  0.47397167    -0.00100
C557        C  0.47074964  0.47423064  0.44385582     0.02500
C558        C  0.44261070  0.44356391  0.42142349    -0.20400
C559        C  0.41933964  0.40998871  0.44456293    -0.20600
C560        C  0.43559693  0.41873002  0.48031045     0.02400
H561        H  0.44011152  0.44359017  0.39167880     0.16200
H562        H  0.39710474  0.37676298  0.43532167     0.16200
N563        N  0.96091371  0.40541577  0.05511438    -0.00100
C564        C  0.94779986  0.38684381  0.08818077     0.02500
C565        C  0.96101092  0.42416456  0.11553319    -0.20400
C566        C  0.98258209  0.46747457  0.09849027    -0.20600
C567        C  0.98171938  0.45578116  0.06091084     0.02400
H568        H  0.95415156  0.42174377  0.14439350     0.16200
H569        H  0.99437424  0.50548081  0.11221646     0.16200
N570        N  0.96502783  0.36979643  0.02512870    -0.00100
C571        C  0.47949048  0.33139533  0.03399479     0.02500
C572        C  0.45379306  0.30429783  0.00779600    -0.20400
C573        C  0.43891643  0.31573545  0.48808349    -0.20600
C574        C  0.44228953  0.36890922  0.50345341     0.02400
H575        H  0.44895498  0.25993099  0.00317918     0.16200
H576        H  0.42343809  0.30234411  0.46244149     0.16200
O577        O  0.56781340  0.70487003  0.43973198    -0.69600
O578        O  0.63562663  0.62664970  0.36857269    -0.70500
O579        O  0.63772852  0.73624976  0.39780617    -0.59200
O580        O  0.56549369  0.59614678  0.41118517    -0.67600
O581        O  0.52613769  0.61694099  0.36291931    -0.67100
O582        O  0.59615739  0.75988533  0.35180332    -0.58400
O583        O  0.59628651  0.65333490  0.32190170    -0.70900
O584        O  0.52561503  0.72370890  0.39301143    -0.69700
Cu585      Cu  0.60318663  0.66505971  0.40591151     1.04600
Cu586      Cu  0.55968628  0.68933678  0.35578881     1.04300
C587        C  0.53507140  0.72466406  0.42743570     0.96600
C588        C  0.62723557  0.62928551  0.33394452     0.95800
C589        C  0.62842582  0.76989483  0.37233875     0.87900
C590        C  0.53385976  0.58523916  0.38998836     0.94200
O591        O  0.83413280  0.60884966  0.34874823    -0.69600
O592        O  0.89203979  0.75288091  0.38668092    -0.70500
O593        O  0.89072819  0.63982552  0.40818844    -0.59200
O594        O  0.83547018  0.72170365  0.32669217    -0.67600
O595        O  0.78397361  0.73540476  0.36242387    -0.67100
O596        O  0.83895346  0.65208868  0.44396042    -0.58400
O597        O  0.84036423  0.76401112  0.42278594    -0.70900
O598        O  0.78249165  0.62156775  0.38451915    -0.69700
Cu599      Cu  0.86489059  0.68046416  0.36625947     1.04600
Cu600      Cu  0.80958617  0.69362888  0.40456315     1.04300
C601        C  0.79908753  0.59252443  0.36087744     0.96600
C602        C  0.87565345  0.78035786  0.41138389     0.95800
C603        C  0.87381716  0.63407350  0.43920300     0.87900
C604        C  0.80105466  0.74105123  0.33144043     0.94200
O605        O  0.65103731  0.23264237  0.11289431    -0.69600
O606        O  0.58115749  0.09365914  0.08764472    -0.70500
O607        O  0.58243338  0.20445740  0.06376207    -0.59200
O608        O  0.64914245  0.12174305  0.13800869    -0.67600
O609        O  0.60369242  0.13447393  0.18020222    -0.67100
O610        O  0.54348701  0.22750331  0.10888857    -0.58400
O611        O  0.53648314  0.11396462  0.12881445    -0.70900
O612        O  0.61179695  0.24801162  0.15955160    -0.69700
Cu613      Cu  0.61750977  0.16243086  0.09911204     1.04600
Cu614      Cu  0.57240787  0.18165262  0.14594601     1.04300
C615        C  0.64325624  0.26143415  0.14066911     0.96600
C616        C  0.54700743  0.08316473  0.10287551     0.95800
C617        C  0.55233179  0.22914747  0.07496510     0.87900
C618        C  0.63655330  0.11493227  0.17073770     0.94200
O619        O  0.89388841  0.11627787  0.12536096    -0.69600
O620        O  0.83554444  0.19316160  0.20311027    -0.70500
O621        O  0.82865022  0.08537757  0.17191132    -0.59200
O622        O  0.90134984  0.22429344  0.15657692    -0.67600
O623        O  0.85808788  0.25097158  0.11287531    -0.67100
O624        O  0.78300664  0.11329457  0.13079176    -0.58400
O625        O  0.79219481  0.22362421  0.16092231    -0.70900
O626        O  0.84890993  0.14282005  0.08314128    -0.69700
Cu627      Cu  0.86634364  0.15384336  0.16568801     1.04600
Cu628      Cu  0.81890552  0.18357694  0.12041197     1.04300
C629        C  0.88074301  0.11802996  0.09186298     0.96600
C630        C  0.80494628  0.22054766  0.19451441     0.95800
C631        C  0.79428553  0.07757107  0.15429232     0.87900
C632        C  0.89167302  0.25894929  0.13186997     0.94200
C633        C  0.50833329  0.30321753  0.05883547    -0.13100
C634        C  0.52664494  0.25850600  0.04847365    -0.28200
H635        H  0.51714730  0.32019273  0.08567904     0.16000
H636        H  0.52287268  0.24341633  0.02034563     0.16500
C637        C  0.92071473  0.33548973  0.09347088    -0.13100
C638        C  0.91967219  0.30870818  0.12585803    -0.28200
H639        H  0.90175032  0.31913150  0.07015707     0.16000
H640        H  0.94100052  0.32240388  0.14825623     0.16500
C641        C  0.50456520  0.53752849  0.39801188    -0.13100
C642        C  0.50345261  0.51561832  0.43199001    -0.28200
H643        H  0.48103449  0.52470153  0.37724143     0.16000
H644        H  0.52582198  0.53135443  0.45307588     0.16500
C645        C  0.89533689  0.60958103  0.47076912    -0.13100
C646        C  0.92940793  0.58316318  0.46747709    -0.28200
H647        H  0.88366708  0.61583653  0.49785640     0.16000
H648        H  0.93938831  0.57374514  0.44030203     0.16500
C649        C  0.48170295  0.02389924  0.10096173    -0.13100
C650        C  0.51906824  0.03695559  0.08817396    -0.28200
H651        H  0.47242022  0.04285378  0.12599831     0.16000
H652        H  0.52839294  0.01563627  0.06401713     0.16500
C653        C  0.90354732  0.09438287  0.06239598    -0.13100
C654        C  0.93256539  0.05917224  0.06901648    -0.28200
H655        H  0.89734347  0.10845524  0.03449890     0.16000
H656        H  0.93619695  0.04207944  0.09640450     0.16500
C657        C  0.51697433  0.78739362  0.47675110    -0.13100
C658        C  0.50628002  0.74575147  0.45299127    -0.28200
H659        H  0.54788477  0.80756447  0.47720339     0.16000
H660        H  0.47434414  0.72988566  0.44980679     0.16500
C661        C  0.92928733  0.85829523  0.41169508    -0.13100
C662        C  0.89727297  0.83120321  0.42756419    -0.28200
H663        H  0.93923639  0.84378413  0.38553150     0.16000
H664        H  0.88528280  0.84838789  0.45210925     0.16500
C665        C  0.74393397  0.51663767  0.36285524    -0.13100
C666        C  0.77744232  0.54011415  0.34690684    -0.28200
H667        H  0.73401414  0.53421369  0.38813467     0.16000
H668        H  0.78897584  0.52078463  0.32294911     0.16500
C669        C  0.67431306  0.56184397  0.31310632    -0.13100
C670        C  0.65450531  0.60763044  0.30707441    -0.28200
H671        H  0.66660390  0.53695954  0.33707722     0.16000
H672        H  0.65786208  0.63006867  0.28128845     0.16500
C673        C  0.75864168  0.28716629  0.22000266    -0.13100
C674        C  0.78366190  0.24594346  0.22453730    -0.28200
H675        H  0.75631298  0.30698857  0.19333745     0.16000
H676        H  0.78911754  0.22945737  0.25192591     0.16500
C677        C  0.67418842  0.33293406  0.18409885    -0.13100
C678        C  0.67137164  0.31041119  0.15031118    -0.28200
H679        H  0.65560790  0.31440191  0.20576948     0.16000
H680        H  0.69196807  0.32636522  0.12935891     0.16500
C681        C  0.69974887  0.09606890  0.20499970    -0.13100
C682        C  0.65958429  0.08367221  0.19796286    -0.28200
H683        H  0.71541663  0.13230555  0.19226312     0.16000
H684        H  0.64304369  0.05078883  0.21327783     0.16500
C685        C  0.76723066  0.02807265  0.16355091    -0.13100
C686        C  0.72800357  0.01983572  0.15147178    -0.28200
H687        H  0.77842226  0.00119968  0.18503953     0.16000
H688        H  0.71630345  0.04468804  0.12914430     0.16500
C689        C  0.74971294  0.80012390  0.30264663    -0.13100
C690        C  0.78070300  0.76746598  0.29980825    -0.28200
H691        H  0.74074896  0.81216520  0.32965200     0.16000
H692        H  0.79176283  0.75904815  0.27279354     0.16500
C693        C  0.65546935  0.82049797  0.36645447    -0.13100
C694        C  0.66073824  0.84117035  0.33252089    -0.28200
H695        H  0.67280048  0.83938832  0.38992779     0.16000
H696        H  0.64620653  0.81912537  0.30880814     0.16500
N697        N  0.73972292  0.94383014  0.79713803    -0.00100
C698        C  0.72349280  0.93119319  0.83010697     0.02500
C699        C  0.73342661  0.97417041  0.85463650    -0.20400
C700        C  0.75620523  0.01453344  0.83574391    -0.20600
C701        C  0.75962302  0.99508213  0.80010703     0.02400
H702        H  0.72337769  0.97747949  0.88247141     0.16200
H703        H  0.76651048  0.05538167  0.84635538     0.16200
N704        N  0.74383943  0.90516844  0.76896219    -0.00100
C705        C  0.76041718  0.85573569  0.77287962     0.02500
C706        C  0.75503661  0.82617891  0.74029167    -0.20400
C707        C  0.73490253  0.85866605  0.71586355    -0.20600
C708        C  0.72834184  0.90731888  0.73410202     0.02400
H709        H  0.76467011  0.78544381  0.73465587     0.16200
H710        H  0.72720618  0.84841660  0.68733886     0.16200
N711        N  0.73580513  0.00412652  0.71131960    -0.00100
C712        C  0.73193009  0.01875131  0.67516822     0.02500
C713        C  0.70190488  0.98464725  0.65733105    -0.20400
C714        C  0.68894194  0.94528025  0.68264787    -0.20600
C715        C  0.71226231  0.95561254  0.71509445     0.02400
H716        H  0.69276783  0.98553819  0.62842811     0.16200
H717        H  0.66956461  0.90777254  0.67602296     0.16200
N718        N  0.74768085  0.04216018  0.74040578    -0.00100
C719        C  0.74968934  0.09835114  0.73641499     0.02500
C720        C  0.78069524  0.12356299  0.75847022    -0.20400
C721        C  0.79628933  0.08166012  0.77879389    -0.20600
C722        C  0.77335242  0.03207786  0.76940000     0.02400
H723        H  0.78908185  0.16773048  0.76137148     0.16200
H724        H  0.81736149  0.08832173  0.80232810     0.16200
N725        N  0.72575655  0.43024064  0.73009828    -0.00100
C726        C  0.70873996  0.41309324  0.69705641     0.02500
C727        C  0.71416968  0.45480844  0.67128932    -0.20400
C728        C  0.73484719  0.49913715  0.68928914    -0.20600
C729        C  0.74148184  0.48354366  0.72581678     0.02400
H730        H  0.70274422  0.45428168  0.64296641     0.16200
H731        H  0.74127631  0.53981764  0.67724696     0.16200
N732        N  0.73690938  0.39378695  0.75833324    -0.00100
C733        C  0.75670033  0.34715014  0.75368166     0.02500
C734        C  0.75471331  0.31528111  0.78530698    -0.20400
C735        C  0.73355814  0.34335836  0.80993400    -0.20600
C736        C  0.72292355  0.39189639  0.79287133     0.02400
H737        H  0.76736610  0.27592451  0.79027311     0.16200
H738        H  0.72846531  0.33064583  0.83806560     0.16200
N739        N  0.72896743  0.52804656  0.78570031    -0.00100
C740        C  0.72155151  0.58231067  0.78977170     0.02500
C741        C  0.74413341  0.61511178  0.76553583    -0.20400
C742        C  0.76431437  0.57956055  0.74487996    -0.20600
C743        C  0.75185074  0.52545030  0.75550988     0.02400
H744        H  0.74488638  0.65971675  0.76215751     0.16200
H745        H  0.78128069  0.59190597  0.72082285     0.16200
N746        N  0.72841628  0.48912984  0.81504175    -0.00100
C747        C  0.73129369  0.50423908  0.85113736     0.02500
C748        C  0.70760570  0.46741296  0.87185484    -0.20400
C749        C  0.69192158  0.42616545  0.84807529    -0.20600
C750        C  0.70758997  0.43814743  0.81360219     0.02400
H751        H  0.70428147  0.46841867  0.90133340     0.16200
H752        H  0.67621230  0.38719942  0.85654095     0.16200
N753        N  0.99611342  0.90748228  0.98131776    -0.00100
C754        C  0.00080175  0.89793127  0.94496926     0.02500
C755        C  0.03242588  0.93242439  0.93190567    -0.20400
C756        C  0.04544875  0.96733899  0.96063699    -0.20600
C757        C  0.02020355  0.95429027  0.98996349     0.02400
H758        H  0.04226346  0.93548483  0.90385509     0.16200
H759        H  0.06570762  0.00483807  0.95784578     0.16200
N760        N  0.96305438  0.88756720  0.48979039    -0.00100
C761        C  0.48279299  0.84341281  0.98441741     0.02500
C762        C  0.46985359  0.80670235  0.01161643    -0.20400
C763        C  0.43662995  0.81691002  0.53789180    -0.20600
C764        C  0.45595170  0.86980815  0.53238340     0.02400
H765        H  0.47960489  0.76567021  0.01693711     0.16200
H766        H  0.41422414  0.80510547  0.55819036     0.16200
N767        N  0.95944224  0.01969407  0.52283897    -0.00100
C768        C  0.95680275  0.07453666  0.53039348     0.02500
C769        C  0.98277989  0.10709416  0.50878816    -0.20400
C770        C  0.00053237  0.07143141  0.48633773    -0.20600
C771        C  0.98339540  0.01783202  0.49326923     0.02400
H772        H  0.98719185  0.15195620  0.50821224     0.16200
H773        H  0.00852981  0.06455829  0.96373700     0.16200
N774        N  0.95174244  0.97582059  0.54838902    -0.00100
C775        C  0.48690219  0.97653844  0.59978446     0.02500
C776        C  0.47273329  0.93451181  0.62276314    -0.20400
C777        C  0.45645446  0.89192298  0.60028219    -0.20600
C778        C  0.46083465  0.90946058  0.56399242     0.02400
H779        H  0.47578599  0.93373275  0.65250233     0.16200
H780        H  0.44519634  0.85114654  0.60977866     0.16200
N781        N  0.96619195  0.50420629  0.00109692    -0.00100
C782        C  0.96132346  0.55919590  0.99570828     0.02500
C783        C  0.95637768  0.59616144  0.53354076    -0.20400
C784        C  0.98186281  0.56871001  0.55677994    -0.20600
C785        C  0.99463022  0.52455181  0.53713624     0.02400
H786        H  0.94093207  0.63232981  0.54039015     0.16200
H787        H  0.98851360  0.57834613  0.58554990     0.16200
N788        N  0.96223778  0.46377208  0.97270191    -0.00100
C789        C  0.50175941  0.50804185  0.94187190     0.02500
C790        C  0.49775571  0.46541750  0.91648216    -0.20400
C791        C  0.47876062  0.42023541  0.93393447    -0.20600
C792        C  0.47152495  0.43637511  0.96964929     0.02400
H793        H  0.50927311  0.46593516  0.88899039     0.16200
H794        H  0.47296094  0.37910237  0.92214175     0.16200
N795        N  0.99264763  0.42914495  0.55954374    -0.00100
C796        C  0.99540432  0.41780860  0.59609437     0.02500
C797        C  0.02474363  0.45363241  0.61339824    -0.20400
C798        C  0.03787814  0.49122994  0.58696541    -0.20600
C799        C  0.01477811  0.47840813  0.55468671     0.02400
H800        H  0.03261092  0.45579700  0.64256939     0.16200
H801        H  0.05588194  0.53012807  0.59288993     0.16200
N802        N  0.98216664  0.38844619  0.53174837    -0.00100
C803        C  0.48183976  0.31755197  0.53608866     0.02500
C804        C  0.46421437  0.28395028  0.50830795    -0.20400
C805        C  0.43833028  0.34496369  0.98628078    -0.20600
C806        C  0.45675039  0.39609712  0.99846360     0.02400
H807        H  0.47016718  0.24153811  0.50249273     0.16200
H808        H  0.42106463  0.33711518  0.96057566     0.16200
O809        O  0.59857335  0.74984191  0.94686466    -0.69600
O810        O  0.66012965  0.67108454  0.87238597    -0.70500
O811        O  0.66720118  0.77980392  0.90295830    -0.59200
O812        O  0.59162670  0.64252560  0.91725873    -0.67600
O813        O  0.55077203  0.66864427  0.87149162    -0.67100
O814        O  0.62599326  0.80711538  0.85779846    -0.58400
O815        O  0.61957868  0.70050000  0.82745084    -0.70900
O816        O  0.55700798  0.77750981  0.90214484    -0.69700
Cu817      Cu  0.63088328  0.70990501  0.91138240     1.04600
Cu818      Cu  0.58678713  0.73941911  0.86320379     1.04300
C819        C  0.56744348  0.77477402  0.93632997     0.96600
C820        C  0.65017121  0.67461640  0.83812955     0.95800
C821        C  0.65898823  0.81435618  0.87766277     0.87900
C822        C  0.55899155  0.63437401  0.89703793     0.94200
O823        O  0.85135894  0.63557582  0.85261697    -0.69600
O824        O  0.92075624  0.77104758  0.88901573    -0.70500
O825        O  0.90974507  0.65821183  0.91110315    -0.59200
O826        O  0.86184723  0.74768414  0.83022925    -0.67600
O827        O  0.81204161  0.76824329  0.86609264    -0.67100
O828        O  0.86153794  0.68017157  0.94829989    -0.58400
O829        O  0.87100211  0.79188813  0.92482526    -0.70900
O830        O  0.80224216  0.65481332  0.88960636    -0.69700
Cu831      Cu  0.88760331  0.70254507  0.86947418     1.04600
Cu832      Cu  0.83486690  0.72452365  0.90843497     1.04300
C833        C  0.81602891  0.62363089  0.86545237     0.96600
C834        C  0.90708113  0.80221153  0.91319204     0.95800
C835        C  0.89361810  0.65559397  0.94254372     0.87900
C836        C  0.82924457  0.77142970  0.83509790     0.94200
O837        O  0.66729346  0.25547245  0.62037887    -0.69600
O838        O  0.60327347  0.11168463  0.59430067    -0.70500
O839        O  0.60126490  0.22167143  0.57027663    -0.59200
O840        O  0.66959135  0.14527442  0.64562718    -0.67600
O841        O  0.62346271  0.15529568  0.68769381    -0.67100
O842        O  0.55944844  0.24039551  0.61427247    -0.58400
O843        O  0.55762563  0.12782837  0.63557682    -0.70900
O844        O  0.62593191  0.26825866  0.66593774    -0.69700
Cu845      Cu  0.63699484  0.18292205  0.60625638     1.04600
Cu846      Cu  0.59008467  0.19850275  0.65243005     1.04300
C847        C  0.65726433  0.28405025  0.64748921     0.96600
C848        C  0.56952175  0.09818755  0.60962489     0.95800
C849        C  0.56922846  0.24267759  0.58056459     0.87900
C850        C  0.65737413  0.13851374  0.67844989     0.94200
O851        O  0.91120631  0.17323413  0.61540523    -0.69600
O852        O  0.86156888  0.25248945  0.69679046    -0.70500
O853        O  0.85488622  0.14230263  0.67020637    -0.59200
O854        O  0.91869172  0.28374175  0.64157015    -0.67600
O855        O  0.86742908  0.30468924  0.60387959    -0.67100
O856        O  0.80384265  0.16149517  0.63173480    -0.58400
O857        O  0.81010918  0.27295788  0.65919045    -0.70900
O858        O  0.86130692  0.19542886  0.57652915    -0.69700
Cu859      Cu  0.88829652  0.21239078  0.65733674     1.04600
Cu860      Cu  0.83374854  0.23434349  0.61653697     1.04300
C861        C  0.89456717  0.17274446  0.58305772     0.96600
C862        C  0.82785571  0.27440406  0.69117235     0.95800
C863        C  0.81939356  0.12947921  0.65556894     0.87900
C864        C  0.90367420  0.31567152  0.61746901     0.94200
C865        C  0.51383588  0.30038971  0.56265272    -0.13100
C866        C  0.54213458  0.26701560  0.55287237    -0.28200
H867        H  0.51467187  0.31419251  0.59088769     0.16000
H868        H  0.54440211  0.25551744  0.52420581     0.16500
C869        C  0.96752003  0.37737397  0.61573805    -0.13100
C870        C  0.92898548  0.36368577  0.60311168    -0.28200
H871        H  0.97931344  0.35787514  0.64044411     0.16000
H872        H  0.91685239  0.38544174  0.57945965     0.16500
C873        C  0.53086094  0.58446798  0.90281658    -0.13100
C874        C  0.52563101  0.56216535  0.93646691    -0.28200
H875        H  0.51392602  0.56598156  0.87901266     0.16000
H876        H  0.53996853  0.58338656  0.96056590     0.16500
C877        C  0.91335093  0.62590697  0.97285263    -0.13100
C878        C  0.93540328  0.58294688  0.96632279    -0.28200
H879        H  0.91066719  0.64048095  0.00080582     0.16000
H880        H  0.93420259  0.56615848  0.93872698     0.16500
C881        C  0.51052462  0.02787848  0.61300493    -0.13100
C882        C  0.54405891  0.04861563  0.59608605    -0.28200
H883        H  0.50235023  0.04577920  0.63878788     0.16000
H884        H  0.55357679  0.02800740  0.57172680     0.16500
C885        C  0.91515258  0.14756742  0.55291314    -0.13100
C886        C  0.92886213  0.09709525  0.55681722    -0.28200
H887        H  0.92035186  0.17157331  0.52800904     0.16000
H888        H  0.91822834  0.07253021  0.58000841     0.16500
C889        C  0.51316594  0.83157859  0.95680063    -0.13100
C890        C  0.54209504  0.79674729  0.96453864    -0.28200
H891        H  0.51174513  0.85027474  0.92973057     0.16000
H892        H  0.54607952  0.78121540  0.99240710     0.16500
C893        C  0.97284696  0.86017809  0.92154993    -0.13100
C894        C  0.93348282  0.84861784  0.92994562    -0.28200
H895        H  0.98517584  0.84040865  0.89813108     0.16000
H896        H  0.92124649  0.87063725  0.95247728     0.16500
C897        C  0.75671028  0.55297069  0.86686898    -0.13100
C898        C  0.79124215  0.57371703  0.85134658    -0.28200
H899        H  0.74730810  0.57096997  0.89219511     0.16000
H900        H  0.80183338  0.55328337  0.82737337     0.16500
C901        C  0.69224199  0.60321262  0.81568962    -0.13100
C902        C  0.67540827  0.65139214  0.81034415    -0.28200
H903        H  0.68254700  0.57823395  0.83906899     0.16000
H904        H  0.68014875  0.67469122  0.78505300     0.16500
C905        C  0.77813795  0.33173222  0.72025626    -0.13100
C906        C  0.80897016  0.29842764  0.72294861    -0.28200
H907        H  0.76882334  0.34689204  0.69342782     0.16000
H908        H  0.82070340  0.28682299  0.74996049     0.16500
C909        C  0.68511058  0.35879962  0.69013669    -0.13100
C910        C  0.68198671  0.33631416  0.65631661    -0.28200
H911        H  0.67066814  0.33696912  0.71303896     0.16000
H912        H  0.69937851  0.35601127  0.63427192     0.16500
C913        C  0.72216073  0.12918855  0.71232967    -0.13100
C914        C  0.68269562  0.11119109  0.70596577    -0.28200
H915        H  0.73476106  0.16719755  0.69933594     0.16000
H916        H  0.66889486  0.07609336  0.72121150     0.16500
C917        C  0.79620102  0.07824524  0.66806062    -0.13100
C918        C  0.75763169  0.06288023  0.65624263    -0.28200
H919        H  0.81010074  0.05493026  0.69011046     0.16000
H920        H  0.74395497  0.08418913  0.63313782     0.16500
C921        C  0.78185470  0.83552159  0.80641063    -0.13100
C922        C  0.81088898  0.79994128  0.80353710    -0.28200
H923        H  0.77371732  0.84873211  0.83340730     0.16000
H924        H  0.82135144  0.79002913  0.77655574     0.16500
C925        C  0.68824537  0.86264743  0.87124407    -0.13100
C926        C  0.69497688  0.88180868  0.83709081    -0.28200
H927        H  0.70616786  0.88065243  0.89466321     0.16000
H928        H  0.67954142  0.86036814  0.81354574     0.16500
loop_ 
_geom_bond_atom_site_label_1 
_geom_bond_atom_site_label_2 
_geom_bond_distance 
_geom_bond_site_symmetry_2 
_ccdc_geom_bond_type 
N1            C5   1.348       .  A
N1            C2   1.352       .  A
N1            N8   1.405       .  S
C2            C3   1.380       .  A
C2          C230   1.476       .  S
C3            C4   1.376   1_565  A
C3            H6   1.082       .  S
C4            C5   1.391   1_545  A
C4            H7   1.082       .  S
C5           C26   1.486   1_565  S
N8           C12   1.349       .  A
N8            C9   1.361       .  A
C9           C10   1.383       .  A
C9          C225   1.491       .  S
C10          C11   1.374       .  A
C10          H13   1.082       .  S
C11          C12   1.388       .  A
C11          H14   1.082       .  S
C12          C19   1.484       .  S
N15          C19   1.358   1_545  A
N15          C16   1.364       .  A
N15          N22   1.426       .  S
C16          C17   1.372   1_545  A
C16         C222   1.486       .  S
C17          C18   1.374       .  A
C17          H20   1.082       .  S
C18          C19   1.393       .  A
C18          H21   1.082       .  S
N22          C26   1.361       .  A
N22          C23   1.363       .  A
C23          C24   1.372       .  A
C23         C217   1.482       .  S
C24          C25   1.373       .  A
C24          H27   1.083       .  S
C25          C26   1.392       .  A
C25          H28   1.083       .  S
N29          C33   1.355       .  A
N29          C30   1.354       .  A
N29          N36   1.409       .  S
C30          C31   1.379       .  A
C30         C213   1.479       .  S
C31          C32   1.370       .  A
C31          H34   1.082       .  S
C32          C33   1.393       .  A
C32          H35   1.082       .  S
C33          C47   1.490       .  S
N36          C40   1.353       .  A
N36          C37   1.364       .  A
C37          C38   1.383       .  A
C37         C209   1.493       .  S
C38          C39   1.370       .  A
C38          H41   1.082       .  S
C39          C40   1.388       .  A
C39          H42   1.082       .  S
C40          C54   1.483       .  S
N43          C47   1.357       .  A
N43          C44   1.361       .  A
N43          N50   1.419       .  S
C44          C45   1.377       .  A
C44         C205   1.489       .  S
C45          C46   1.373       .  A
C45          H48   1.082       .  S
C46          C47   1.394       .  A
C46          H49   1.082       .  S
N50          C54   1.354       .  A
N50          C51   1.360       .  A
C51          C52   1.372       .  A
C51         C201   1.484       .  S
C52          C53   1.374       .  A
C52          H55   1.082       .  S
C53          C54   1.393       .  A
C53          H56   1.082       .  S
N57          C61   1.351       .  A
N57          C58   1.358       .  A
N57         N296   1.420       .  S
C58          C59   1.372       .  A
C58         C197   1.484       .  S
C59          C60   1.377       .  A
C59          H62   1.082       .  S
C60          C61   1.394       .  A
C60          H63   1.083   1_565  S
C61         C307   1.478   1_565  S
N64         C532   1.351   1_556  A
N64         C761   1.360       .  A
N64         N289   1.409       .  S
C65         N760   1.359       .  A
C65          C66   1.381       .  A
C65         C193   1.486   1_655  S
C66         C299   1.370       .  A
C66          H69   1.082       .  S
C67          C68   1.393       .  A
C67         C298   1.374       .  A
C67          H70   1.082       .  S
C68         N528   1.360       .  A
C68          C82   1.488       .  S
N71          C75   1.363   1_554  A
N71          C72   1.367       .  A
N71          N78   1.420   1_545  S
C72          C73   1.376       .  A
C72         C190   1.491       .  S
C73          C74   1.369   1_554  A
C73          H76   1.081       .  S
C74          C75   1.393       .  A
C74         H309   1.081       .  S
C75         C293   1.496   1_545  S
H77         C306   1.082       .  S
N78         C546   1.352       .  A
N78         C543   1.357       .  A
C79         N542   1.356       .  A
C79          C80   1.374       .  A
C79         C185   1.474   1_665  S
C80          C81   1.375       .  A
C80          H83   1.082       .  S
C81          C82   1.393       .  A
C81          H84   1.082       .  S
C82         N542   1.351       .  A
N85          C86   1.369       .  A
N85         C321   1.356       .  A
N85          N92   1.414       .  S
C86         C319   1.380       .  A
C86         C182   1.495       .  S
C87          C88   1.373       .  A
C87         C318   1.383       .  A
C87          H90   1.082       .  S
C88          C89   1.389       .  A
C88          H91   1.082       .  S
C89         N317   1.346       .  A
C89         C103   1.476       .  S
N92         C560   1.356       .  A
N92         C557   1.353       .  A
C93         N556   1.354   1_455  A
C93          C94   1.379   1_455  A
C93         C178   1.478       .  S
C94          C95   1.375       .  A
C94          H97   1.082   1_655  S
C95          C96   1.392       .  A
C95          H98   1.082       .  S
C96         N556   1.350       .  A
C96         C110   1.492       .  S
N99         C103   1.353       .  A
N99         C100   1.358       .  A
N99         N106   1.422       .  S
C100        C101   1.372       .  A
C100        C173   1.482       .  S
C101        C102   1.375       .  A
C101        H104   1.082       .  S
C102        C103   1.393       .  A
C102        H105   1.083       .  S
N106        C806   1.362   1_554  A
N106        C571   1.363       .  A
C107        N570   1.360       .  A
C107        C108   1.378   1_554  A
C107        C169   1.486   1_655  S
C108        C341   1.371       .  A
C108        H111   1.082       .  S
C109        C110   1.391       .  A
C109        C340   1.371       .  A
C109        H112   1.083       .  S
C110        N802   1.364       .  A
O113       Cu121   1.999       .  S
O113        C123   1.276       .  A
O114       Cu121   2.014       .  S
O114        C124   1.279       .  A
O115       Cu121   2.005       .  S
O115        C125   1.276       .  A
O116       Cu121   1.998       .  S
O116        C126   1.276       .  A
O117       Cu122   2.021       .  S
O117        C126   1.279       .  A
O118       Cu122   2.003       .  S
O118        C125   1.278       .  A
O119       Cu122   2.006       .  S
O119        C124   1.276       .  A
O120       Cu122   2.018       .  S
O120        C123   1.279       .  A
Cu121      Cu122   2.377       .  S
C123        C194   1.472       .  S
C124        C206   1.472       .  S
C125        C229   1.467       .  S
C126        C177   1.472       .  S
O127       Cu135   2.002       .  S
O127        C137   1.276       .  A
O128       Cu135   2.018       .  S
O128        C138   1.278       .  A
O129       Cu135   2.022       .  S
O129        C139   1.279       .  A
O130       Cu135   2.017       .  S
O130        C140   1.279       .  A
O131       Cu136   2.020       .  S
O131        C140   1.278       .  A
O132       Cu136   2.012       .  S
O132        C139   1.277       .  A
O133       Cu136   2.008       .  S
O133        C138   1.277       .  A
O134       Cu136   2.020       .  S
O134        C137   1.280       .  A
Cu135      Cu136   2.374       .  S
C137        C202   1.474       .  S
C138        C198   1.474       .  S
C139        C181   1.476       .  S
C140        C226   1.479       .  S
O141       Cu149   1.986       .  S
O141        C151   1.273       .  A
O142       Cu149   1.994       .  S
O142        C152   1.274       .  A
O143       Cu149   2.010       .  S
O143        C153   1.278       .  A
O144       Cu149   2.019       .  S
O144        C154   1.280       .  A
O145       Cu150   2.007       .  S
O145        C154   1.275       .  A
O146       Cu150   2.018       .  S
O146        C153   1.278       .  A
O147       Cu150   2.017       .  S
O147        C152   1.280       .  A
O148       Cu150   2.021       .  S
O148        C151   1.280       .  A
Cu149      Cu150   2.374       .  S
C151        C214   1.465       .  S
C152        C186   1.470       .  S
C153        C170   1.475       .  S
C154        C218   1.471       .  S
O155       Cu163   2.003       .  S
O155        C165   1.277       .  A
O156       Cu163   2.008       .  S
O156        C166   1.278       .  A
O157       Cu163   1.996       .  S
O157        C167   1.275       .  A
O158       Cu163   2.006       .  S
O158        C168   1.278       .  A
O159       Cu164   2.012       .  S
O159        C168   1.278       .  A
O160       Cu164   2.031       .  S
O160        C167   1.281       .  A
O161       Cu164   2.029       .  S
O161        C166   1.279       .  A
O162       Cu164   2.020       .  S
O162        C165   1.278       .  A
Cu163      Cu164   2.375       .  S
C165        C189   1.473       .  S
C166        C210   1.477       .  S
C167        C221   1.475       .  S
C168        C174   1.474       .  S
C169        C170   1.346       .  D
C169        H171   1.084       .  S
C170        H172   1.087       .  S
C173        C174   1.343       .  D
C173        H175   1.086       .  S
C174        H176   1.087       .  S
C177        C178   1.345       .  D
C177        H179   1.086       .  S
C178        H180   1.087       .  S
C181        C182   1.347       .  D
C181        H183   1.086       .  S
C182        H184   1.080       .  S
C185        C186   1.338       .  D
C185        H187   1.087       .  S
C186        H188   1.086       .  S
C189        C190   1.343       .  D
C189        H191   1.086       .  S
C190        H192   1.080       .  S
C193        C194   1.344       .  D
C193        H195   1.083       .  S
C194        H196   1.086       .  S
C197        C198   1.345       .  D
C197        H199   1.086       .  S
C198        H200   1.087       .  S
C201        C202   1.342       .  D
C201        H203   1.086       .  S
C202        H204   1.087       .  S
C205        C206   1.340       .  D
C205        H207   1.082       .  S
C206        H208   1.086       .  S
C209        C210   1.349       .  D
C209        H211   1.083       .  S
C210        H212   1.086       .  S
C213        C214   1.341       .  D
C213        H215   1.086       .  S
C214        H216   1.086       .  S
C217        C218   1.341       .  D
C217        H219   1.088       .  S
C218        H220   1.086       .  S
C221        C222   1.342       .  D
C221        H223   1.087       .  S
C222        H224   1.086       .  S
C225        C226   1.349       .  D
C225        H227   1.083       .  S
C226        H228   1.086       .  S
C229        C230   1.342       .  D
C229        H231   1.086       .  S
C230        H232   1.087       .  S
N233        C237   1.349       .  A
N233        C234   1.352       .  A
N233        N240   1.405       .  S
C234        C235   1.380       .  A
C234        C462   1.478       .  S
C235        C236   1.377       .  A
C235        H238   1.082       .  S
C236        C237   1.391       .  A
C236        H239   1.082   1_565  S
C237        C258   1.486   1_565  S
N240        C244   1.347       .  A
N240        C241   1.358       .  A
C241        C242   1.383       .  A
C241        C457   1.486       .  S
C242        C243   1.373       .  A
C242        H245   1.082       .  S
C243        C244   1.388       .  A
C243        H246   1.082       .  S
C244        C251   1.478       .  S
N247        C251   1.355       .  A
N247        C248   1.362       .  A
N247        N254   1.424   1_565  S
C248        C249   1.372       .  A
C248        C454   1.483   1_565  S
C249        C250   1.373       .  A
C249        H252   1.082       .  S
C250        C251   1.392       .  A
C250        H253   1.083       .  S
N254        C258   1.359       .  A
N254        C255   1.360       .  A
C255        C256   1.372       .  A
C255        C449   1.481       .  S
C256        C257   1.375       .  A
C256        H259   1.082       .  S
C257        C258   1.393       .  A
C257        H260   1.083       .  S
N261        C265   1.355       .  A
N261        C262   1.352       .  A
N261        N268   1.409       .  S
C262        C263   1.377       .  A
C262        C445   1.476       .  S
C263        C264   1.371       .  A
C263        H266   1.082       .  S
C264        C265   1.395       .  A
C264        H267   1.081       .  S
C265        C279   1.490       .  S
N268        C272   1.353       .  A
N268        C269   1.364       .  A
C269        C270   1.382       .  A
C269        C441   1.494       .  S
C270        C271   1.369       .  A
C270        H273   1.082       .  S
C271        C272   1.389       .  A
C271        H274   1.082       .  S
C272        C286   1.483       .  S
N275        C279   1.357       .  A
N275        C276   1.362       .  A
N275        N282   1.418       .  S
C276        C277   1.377       .  A
C276        C437   1.491       .  S
C277        C278   1.372       .  A
C277        H280   1.082       .  S
C278        C279   1.393       .  A
C278        H281   1.082       .  S
N282        C286   1.355       .  A
N282        C283   1.360       .  A
C283        C284   1.372       .  A
C283        C433   1.482       .  S
C284        C285   1.373       .  A
C284        H287   1.082       .  S
C285        C286   1.393       .  A
C285        H288   1.082       .  S
N289        C293   1.356       .  A
N289        C290   1.359       .  A
C290        C291   1.371       .  A
C290        C429   1.478       .  S
C291        C292   1.371       .  A
C291        H294   1.082       .  S
C292        C293   1.395       .  A
C292        H295   1.080   1_565  S
N296        C764   1.361       .  A
N296        C529   1.363       .  A
C297        N528   1.359   1_556  A
C297        C298   1.374   1_556  A
C297        C425   1.482   1_655  S
C298        H301   1.081       .  S
C299        C300   1.391       .  A
C299        H302   1.082       .  S
C300        N760   1.353       .  A
C300        C314   1.483       .  S
N303        C307   1.349       .  A
N303        C304   1.362       .  A
N303        N310   1.409   1_545  S
C304        C305   1.382       .  A
C304        C422   1.488       .  S
C305        C306   1.372       .  A
C305        H308   1.082       .  S
C306        C307   1.389       .  A
N310        C778   1.355       .  A
N310        C775   1.356       .  A
C311        N774   1.359       .  A
C311        C312   1.372       .  A
C311        C417   1.483   1_565  S
C312        C313   1.376       .  A
C312        H315   1.082       .  S
C313        C314   1.395       .  A
C313        H316   1.083       .  S
C314        N774   1.353       .  A
N317        C318   1.356       .  A
N317        N324   1.405   1_554  S
C318        C414   1.483   1_554  S
C319        C320   1.368       .  A
C319        H322   1.082       .  S
C320        C321   1.390       .  A
C320        H323   1.082       .  S
C321        C335   1.484       .  S
N324        C792   1.352       .  A
N324        C789   1.355       .  A
C325        N788   1.355       .  A
C325        C326   1.377       .  A
C325        C410   1.479   1_655  S
C326        C327   1.374       .  A
C326        H329   1.082       .  S
C327        C328   1.394       .  A
C327        H330   1.082       .  S
C328        N788   1.353       .  A
C328        C342   1.482       .  S
N331        C335   1.356       .  A
N331        C332   1.362       .  A
N331        N338   1.415       .  S
C332        C333   1.373       .  A
C332        C405   1.483       .  S
C333        C334   1.369       .  A
C333        H336   1.082       .  S
C334        C335   1.392       .  A
C334        H337   1.082       .  S
N338        C574   1.358       .  A
N338        C803   1.362       .  A
C339        N802   1.364       .  A
C339        C340   1.376       .  A
C339        C401   1.490   1_655  S
C340        H343   1.081       .  S
C341        C342   1.393       .  A
C341        H344   1.081       .  S
C342        N570   1.352   1_556  A
O345       Cu353   2.013       .  S
O345        C355   1.277       .  A
O346       Cu353   2.022       .  S
O346        C356   1.280       .  A
O347       Cu353   2.005       .  S
O347        C357   1.276       .  A
O348       Cu353   2.000       .  S
O348        C358   1.278       .  A
O349       Cu354   2.006       .  S
O349        C358   1.276       .  A
O350       Cu354   2.010       .  S
O350        C357   1.278       .  A
O351       Cu354   2.004       .  S
O351        C356   1.276       .  A
O352       Cu354   2.014       .  S
O352        C355   1.278       .  A
Cu353      Cu354   2.375       .  S
C355        C426   1.469       .  S
C356        C438   1.473       .  S
C357        C461   1.470       .  S
C358        C409   1.471       .  S
O359       Cu367   2.010       .  S
O359        C369   1.277       .  A
O360       Cu367   2.015       .  S
O360        C370   1.280       .  A
O361       Cu367   2.008       .  S
O361        C371   1.277       .  A
O362       Cu367   2.003       .  S
O362        C372   1.277       .  A
O363       Cu368   2.020       .  S
O363        C372   1.279       .  A
O364       Cu368   2.008       .  S
O364        C371   1.278       .  A
O365       Cu368   2.003       .  S
O365        C370   1.276       .  A
O366       Cu368   2.012       .  S
O366        C369   1.279       .  A
Cu367      Cu368   2.376       .  S
C369        C434   1.475       .  S
C370        C430   1.473       .  S
C371        C413   1.472       .  S
C372        C458   1.472       .  S
O373       Cu381   1.990       .  S
O373        C383   1.274       .  A
O374       Cu381   1.998       .  S
O374        C384   1.276       .  A
O375       Cu381   2.016       .  S
O375        C385   1.277       .  A
O376       Cu381   2.020       .  S
O376        C386   1.279       .  A
O377       Cu382   2.006       .  S
O377        C386   1.275       .  A
O378       Cu382   2.007       .  S
O378        C385   1.278       .  A
O379       Cu382   2.022       .  S
O379        C384   1.280       .  A
O380       Cu382   2.016       .  S
O380        C383   1.279       .  A
Cu381      Cu382   2.372       .  S
C383        C446   1.465       .  S
C384        C418   1.474       .  S
C385        C402   1.473       .  S
C386        C450   1.469       .  S
O387       Cu395   1.997       .  S
O387        C397   1.275       .  A
O388       Cu395   1.992       .  S
O388        C398   1.275       .  A
O389       Cu395   2.017       .  S
O389        C399   1.278       .  A
O390       Cu395   2.026       .  S
O390        C400   1.281       .  A
O391       Cu396   1.997       .  S
O391        C400   1.274       .  A
O392       Cu396   2.004       .  S
O392        C399   1.277       .  A
O393       Cu396   2.040       .  S
O393        C398   1.281       .  A
O394       Cu396   2.031       .  S
O394        C397   1.281       .  A
Cu395      Cu396   2.374       .  S
C397        C421   1.477       .  S
C398        C442   1.476       .  S
C399        C453   1.476       .  S
C400        C406   1.475       .  S
C401        C402   1.343       .  D
C401        H403   1.079       .  S
C402        H404   1.085       .  S
C405        C406   1.339       .  D
C405        H407   1.087       .  S
C406        H408   1.086       .  S
C409        C410   1.343       .  D
C409        H411   1.085   1_455  S
C410        H412   1.086       .  S
C413        C414   1.345       .  D
C413        H415   1.086       .  S
C414        H416   1.084       .  S
C417        C418   1.342   1_655  D
C417        H419   1.086       .  S
C418        H420   1.087       .  S
C421        C422   1.350       .  D
C421        H423   1.086       .  S
C422        H424   1.083       .  S
C425        C426   1.339       .  D
C425        H427   1.087       .  S
C426        H428   1.085   1_455  S
C429        C430   1.340       .  D
C429        H431   1.087       .  S
C430        H432   1.086       .  S
C433        C434   1.343       .  D
C433        H435   1.086       .  S
C434        H436   1.086       .  S
C437        C438   1.342       .  D
C437        H439   1.083       .  S
C438        H440   1.086       .  S
C441        C442   1.346       .  D
C441        H443   1.083       .  S
C442        H444   1.087       .  S
C445        C446   1.339       .  D
C445        H447   1.086       .  S
C446        H448   1.086       .  S
C449        C450   1.343       .  D
C449        H451   1.087       .  S
C450        H452   1.087       .  S
C453        C454   1.345       .  D
C453        H455   1.087       .  S
C454        H456   1.086       .  S
C457        C458   1.346       .  D
C457        H459   1.084       .  S
C458        H460   1.086       .  S
C461        C462   1.342       .  D
C461        H463   1.086       .  S
C462        H464   1.087       .  S
N465        C469   1.347       .  A
N465        C466   1.351       .  A
N465        N472   1.404       .  S
C466        C467   1.380       .  A
C466        C694   1.474       .  S
C467        C468   1.376       .  A
C467        H470   1.082       .  S
C468        C469   1.390       .  A
C468        H471   1.082   1_565  S
C469        C490   1.483       .  S
N472        C476   1.348       .  A
N472        C473   1.359       .  A
C473        C474   1.383       .  A
C473        C689   1.490       .  S
C474        C475   1.375       .  A
C474        H477   1.082       .  S
C475        C476   1.388       .  A
C475        H478   1.082       .  S
C476        C483   1.483       .  S
N479        C483   1.356       .  A
N479        C480   1.361       .  A
N479        N486   1.426   1_565  S
C480        C481   1.372       .  A
C480        C686   1.483   1_565  S
C481        C482   1.376       .  A
C481        H484   1.082       .  S
C482        C483   1.394       .  A
C482        H485   1.083       .  S
N486        C490   1.360   1_545  A
N486        C487   1.362       .  A
C487        C488   1.372       .  A
C487        C681   1.482       .  S
C488        C489   1.373       .  A
C488        H491   1.081       .  S
C489        C490   1.392   1_545  A
C489        H492   1.083       .  S
N493        C497   1.359       .  A
N493        C494   1.355       .  A
N493        N500   1.412       .  S
C494        C495   1.376       .  A
C494        C677   1.482       .  S
C495        C496   1.370       .  A
C495        H498   1.082       .  S
C496        C497   1.395       .  A
C496        H499   1.080       .  S
C497        C511   1.497       .  S
N500        C504   1.356       .  A
N500        C501   1.369       .  A
C501        C502   1.380       .  A
C501        C673   1.499       .  S
C502        C503   1.369       .  A
C502        H505   1.082       .  S
C503        C504   1.390       .  A
C503        H506   1.081       .  S
C504        C518   1.488       .  S
N507        C511   1.359       .  A
N507        C508   1.366       .  A
N507        N514   1.416       .  S
C508        C509   1.377       .  A
C508        C669   1.496       .  S
C509        C510   1.371       .  A
C509        H512   1.082       .  S
C510        C511   1.394       .  A
C510        H513   1.081       .  S
N514        C518   1.356       .  A
N514        C515   1.362       .  A
C515        C516   1.373       .  A
C515        C665   1.483       .  S
C516        C517   1.370       .  A
C516        H519   1.082       .  S
C517        C518   1.392       .  A
C517        H520   1.082       .  S
N521        C525   1.356       .  A
N521        C522   1.360       .  A
N521        N760   1.409       .  S
C522        C523   1.373       .  A
C522        C661   1.476       .  S
C523        C524   1.371   1_565  A
C523        H526   1.082       .  S
C524        C525   1.394   1_545  A
C524        H527   1.081       .  S
C525        C771   1.491   1_565  S
N528        N753   1.422   1_554  S
C529        C530   1.375       .  A
C529        C657   1.488       .  S
C530        C763   1.373       .  A
C530        H533   1.082       .  S
C531        C762   1.372       .  A
C531        C532   1.392       .  A
C531        H534   1.082       .  S
C532        C546   1.480       .  S
N535        C539   1.349   1_665  A
N535        C536   1.359   1_565  A
N535        N542   1.407       .  S
C536        C537   1.382       .  A
C536        C654   1.487       .  S
C537        C538   1.373   1_554  A
C537        H540   1.082       .  S
C538        C539   1.389   1_656  A
C538        H773   1.082   1_655  S
C539        C757   1.478   1_544  S
H541        C770   1.082       .  S
C543        C544   1.372       .  A
C543        C649   1.479   1_565  S
C544        C545   1.375       .  A
C544        H547   1.082       .  S
C545        C546   1.394       .  A
C545        H548   1.083       .  S
N549        C785   1.345       .  A
N549        C550   1.356       .  A
N549        N556   1.403       .  S
C550        C783   1.383       .  A
C550        C646   1.483       .  S
C551        C782   1.375   1_554  A
C551        C552   1.370   1_655  A
C551        H554   1.082       .  S
C552        C553   1.394   1_455  A
C552        H555   1.081       .  S
C553        N781   1.360       .  A
C553        C567   1.492       .  S
C557        C558   1.376       .  A
C557        C642   1.478       .  S
C558        C559   1.373       .  A
C558        H561   1.081       .  S
C559        C560   1.395       .  A
C559        H562   1.082       .  S
C560        C574   1.493       .  S
N563        C567   1.355       .  A
N563        C564   1.354       .  A
N563        N570   1.409       .  S
C564        C565   1.376       .  A
C564        C637   1.478       .  S
C565        C566   1.371       .  A
C565        H568   1.082       .  S
C566        C567   1.395       .  A
C566        H569   1.080       .  S
C571        C572   1.376       .  A
C571        C633   1.489       .  S
C572        C805   1.373   1_554  A
C572        H575   1.082       .  S
C573        C804   1.371       .  A
C573        C574   1.396       .  A
C573        H576   1.081       .  S
O577       Cu585   2.025       .  S
O577        C587   1.279       .  A
O578       Cu585   2.033       .  S
O578        C588   1.281       .  A
O579       Cu585   2.003       .  S
O579        C589   1.276       .  A
O580       Cu585   1.998       .  S
O580        C590   1.278       .  A
O581       Cu586   2.005       .  S
O581        C590   1.276       .  A
O582       Cu586   2.003       .  S
O582        C589   1.278       .  A
O583       Cu586   2.006       .  S
O583        C588   1.276       .  A
O584       Cu586   2.015       .  S
O584        C587   1.278       .  A
Cu585      Cu586   2.375       .  S
C587        C658   1.474       .  S
C588        C670   1.477       .  S
C589        C693   1.467       .  S
C590        C641   1.471       .  S
O591       Cu599   2.017       .  S
O591        C601   1.278       .  A
O592       Cu599   2.022       .  S
O592        C602   1.281       .  A
O593       Cu599   2.010       .  S
O593        C603   1.278       .  A
O594       Cu599   2.011       .  S
O594        C604   1.278       .  A
O595       Cu600   2.027       .  S
O595        C604   1.279       .  A
O596       Cu600   2.010       .  S
O596        C603   1.278       .  A
O597       Cu600   2.001       .  S
O597        C602   1.275       .  A
O598       Cu600   2.010       .  S
O598        C601   1.279       .  A
Cu599      Cu600   2.374       .  S
C601        C666   1.478       .  S
C602        C662   1.476       .  S
C603        C645   1.474       .  S
C604        C690   1.478       .  S
O605       Cu613   1.994       .  S
O605        C615   1.275       .  A
O606       Cu613   1.994       .  S
O606        C616   1.275       .  A
O607       Cu613   2.022       .  S
O607        C617   1.278       .  A
O608       Cu613   2.024       .  S
O608        C618   1.280       .  A
O609       Cu614   2.000       .  S
O609        C618   1.274       .  A
O610       Cu614   2.004       .  S
O610        C617   1.278       .  A
O611       Cu614   2.016       .  S
O611        C616   1.279       .  A
O612       Cu614   2.020       .  S
O612        C615   1.280       .  A
Cu613      Cu614   2.372       .  S
C615        C678   1.470       .  S
C616        C650   1.470       .  S
C617        C634   1.476       .  S
C618        C682   1.469       .  S
O619       Cu627   2.011       .  S
O619        C629   1.278       .  A
O620       Cu627   2.015       .  S
O620        C630   1.278       .  A
O621       Cu627   1.994       .  S
O621        C631   1.275       .  A
O622       Cu627   2.002       .  S
O622        C632   1.276       .  A
O623       Cu628   2.009       .  S
O623        C632   1.278       .  A
O624       Cu628   2.023       .  S
O624        C631   1.280       .  A
O625       Cu628   2.033       .  S
O625        C630   1.280       .  A
O626       Cu628   2.014       .  S
O626        C629   1.278       .  A
Cu627      Cu628   2.375       .  S
C629        C653   1.475       .  S
C630        C674   1.481       .  S
C631        C685   1.472       .  S
C632        C638   1.469       .  S
C633        C634   1.343       .  D
C633        H635   1.079       .  S
C634        H636   1.086       .  S
C637        C638   1.342       .  D
C637        H639   1.086       .  S
C638        H640   1.086       .  S
C641        C642   1.343       .  D
C641        H643   1.085       .  S
C642        H644   1.087       .  S
C645        C646   1.345       .  D
C645        H647   1.086       .  S
C646        H648   1.084       .  S
C649        C650   1.340       .  D
C649        H651   1.086       .  S
C650        H652   1.087       .  S
C653        C654   1.346       .  D
C653        H655   1.086       .  S
C654        H656   1.083       .  S
C657        C658   1.342       .  D
C657        H659   1.086       .  S
C658        H660   1.086       .  S
C661        C662   1.338       .  D
C661        H663   1.087       .  S
C662        H664   1.087       .  S
C665        C666   1.344       .  D
C665        H667   1.087       .  S
C666        H668   1.086       .  S
C669        C670   1.344       .  D
C669        H671   1.082       .  S
C670        H672   1.086       .  S
C673        C674   1.351       .  D
C673        H675   1.083       .  S
C674        H676   1.085       .  S
C677        C678   1.342       .  D
C677        H679   1.086       .  S
C678        H680   1.086       .  S
C681        C682   1.341       .  D
C681        H683   1.087       .  S
C682        H684   1.087       .  S
C685        C686   1.343       .  D
C685        H687   1.087       .  S
C686        H688   1.086       .  S
C689        C690   1.348       .  D
C689        H691   1.084       .  S
C690        H692   1.086       .  S
C693        C694   1.341       .  D
C693        H695   1.086       .  S
C694        H696   1.087       .  S
N697        C701   1.351       .  A
N697        C698   1.354       .  A
N697        N704   1.407       .  S
C698        C699   1.380       .  A
C698        C926   1.478       .  S
C699        C700   1.374   1_565  A
C699        H702   1.082       .  S
C700        C701   1.392   1_545  A
C700        H703   1.082       .  S
C701        C722   1.486   1_565  S
N704        C708   1.350       .  A
N704        C705   1.359       .  A
C705        C706   1.383       .  A
C705        C921   1.486       .  S
C706        C707   1.372       .  A
C706        H709   1.082       .  S
C707        C708   1.388       .  A
C707        H710   1.082       .  S
C708        C715   1.480       .  S
N711        C715   1.356   1_545  A
N711        C712   1.364       .  A
N711        N718   1.423       .  S
C712        C713   1.372   1_545  A
C712        C918   1.485       .  S
C713        C714   1.373       .  A
C713        H716   1.082       .  S
C714        C715   1.392       .  A
C714        H717   1.083       .  S
N718        C722   1.359       .  A
N718        C719   1.360       .  A
C719        C720   1.372       .  A
C719        C913   1.480       .  S
C720        C721   1.374       .  A
C720        H723   1.083       .  S
C721        C722   1.394       .  A
C721        H724   1.083       .  S
N725        C729   1.355       .  A
N725        C726   1.356       .  A
N725        N732   1.408       .  S
C726        C727   1.378       .  A
C726        C909   1.481       .  S
C727        C728   1.371       .  A
C727        H730   1.082       .  S
C728        C729   1.393       .  A
C728        H731   1.081       .  S
C729        C743   1.491       .  S
N732        C736   1.353       .  A
N732        C733   1.363       .  A
C733        C734   1.382       .  A
C733        C905   1.492       .  S
C734        C735   1.371       .  A
C734        H737   1.082       .  S
C735        C736   1.389       .  A
C735        H738   1.082       .  S
C736        C750   1.484       .  S
N739        C743   1.359       .  A
N739        C740   1.363       .  A
N739        N746   1.419       .  S
C740        C741   1.377       .  A
C740        C901   1.492       .  S
C741        C742   1.372       .  A
C741        H744   1.082       .  S
C742        C743   1.393       .  A
C742        H745   1.082       .  S
N746        C750   1.355       .  A
N746        C747   1.361       .  A
C747        C748   1.372       .  A
C747        C897   1.485       .  S
C748        C749   1.374       .  A
C748        H751   1.082       .  S
C749        C750   1.393       .  A
C749        H752   1.082       .  S
N753        C757   1.352   1_655  A
N753        C754   1.359   1_655  A
C754        C755   1.372       .  A
C754        C893   1.482   1_455  S
C755        C756   1.376       .  A
C755        H758   1.082       .  S
C756        C757   1.394       .  A
C756        H759   1.083   1_565  S
C761        C762   1.380   1_556  A
C761        C889   1.488       .  S
C762        H765   1.082       .  S
C763        C764   1.393       .  A
C763        H766   1.082       .  S
C764        C778   1.493       .  S
N767        C771   1.360       .  A
N767        C768   1.364       .  A
N767        N774   1.419   1_545  S
C768        C769   1.376       .  A
C768        C886   1.490       .  S
C769        C770   1.370   1_655  A
C769        H772   1.081       .  S
C770        C771   1.392   1_455  A
C775        C776   1.373       .  A
C775        C881   1.475   1_565  S
C776        C777   1.374       .  A
C776        H779   1.082       .  S
C777        C778   1.393       .  A
C777        H780   1.081       .  S
N781        C782   1.364   1_554  A
N781        N788   1.418   1_554  S
C782        C878   1.485       .  S
C783        C784   1.375       .  A
C783        H786   1.082       .  S
C784        C785   1.389       .  A
C784        H787   1.082       .  S
C785        C799   1.476   1_655  S
C789        C790   1.379       .  A
C789        C874   1.481       .  S
C790        C791   1.374       .  A
C790        H793   1.082       .  S
C791        C792   1.392       .  A
C791        H794   1.082       .  S
C792        C806   1.493       .  S
N795        C799   1.353   1_655  A
N795        C796   1.357       .  A
N795        N802   1.424       .  S
C796        C797   1.372   1_655  A
C796        C869   1.480       .  S
C797        C798   1.375       .  A
C797        H800   1.082       .  S
C798        C799   1.393       .  A
C798        H801   1.083       .  S
C803        C804   1.375       .  A
C803        C865   1.484       .  S
C804        H807   1.082       .  S
C805        C806   1.393       .  A
C805        H808   1.083       .  S
O809       Cu817   2.003       .  S
O809        C819   1.276       .  A
O810       Cu817   2.021       .  S
O810        C820   1.280       .  A
O811       Cu817   2.009       .  S
O811        C821   1.277       .  A
O812       Cu817   2.002       .  S
O812        C822   1.277       .  A
O813       Cu818   2.020       .  S
O813        C822   1.279       .  A
O814       Cu818   2.004       .  S
O814        C821   1.278       .  A
O815       Cu818   2.006       .  S
O815        C820   1.276       .  A
O816       Cu818   2.020       .  S
O816        C819   1.279       .  A
Cu817      Cu818   2.376       .  S
C819        C890   1.474       .  S
C820        C902   1.474       .  S
C821        C925   1.469       .  S
C822        C873   1.473       .  S
O823       Cu831   2.005       .  S
O823        C833   1.276       .  A
O824       Cu831   2.015       .  S
O824        C834   1.279       .  A
O825       Cu831   2.001       .  S
O825        C835   1.277       .  A
O826       Cu831   1.999       .  S
O826        C836   1.276       .  A
O827       Cu832   2.021       .  S
O827        C836   1.279       .  A
O828       Cu832   2.017       .  S
O828        C835   1.278       .  A
O829       Cu832   2.006       .  S
O829        C834   1.277       .  A
O830       Cu832   2.021       .  S
O830        C833   1.280       .  A
Cu831      Cu832   2.375       .  S
C833        C898   1.476       .  S
C834        C894   1.474       .  S
C835        C877   1.472       .  S
C836        C922   1.472       .  S
O837       Cu845   1.996       .  S
O837        C847   1.275       .  A
O838       Cu845   2.002       .  S
O838        C848   1.276       .  A
O839       Cu845   2.007       .  S
O839        C849   1.276       .  A
O840       Cu845   2.016       .  S
O840        C850   1.279       .  A
O841       Cu846   2.004       .  S
O841        C850   1.275       .  A
O842       Cu846   2.005       .  S
O842        C849   1.279       .  A
O843       Cu846   2.016       .  S
O843        C848   1.280       .  A
O844       Cu846   2.019       .  S
O844        C847   1.279       .  A
Cu845      Cu846   2.374       .  S
C847        C910   1.469       .  S
C848        C882   1.474       .  S
C849        C866   1.472       .  S
C850        C914   1.468       .  S
O851       Cu859   2.002       .  S
O851        C861   1.277       .  A
O852       Cu859   2.005       .  S
O852        C862   1.277       .  A
O853       Cu859   1.999       .  S
O853        C863   1.275       .  A
O854       Cu859   2.008       .  S
O854        C864   1.278       .  A
O855       Cu860   2.007       .  S
O855        C864   1.277       .  A
O856       Cu860   2.024       .  S
O856        C863   1.280       .  A
O857       Cu860   2.026       .  S
O857        C862   1.279       .  A
O858       Cu860   2.019       .  S
O858        C861   1.278       .  A
Cu859      Cu860   2.375       .  S
C861        C885   1.470       .  S
C862        C906   1.476       .  S
C863        C917   1.475       .  S
C864        C870   1.473       .  S
C865        C866   1.341       .  D
C865        H867   1.079       .  S
C866        H868   1.087       .  S
C869        C870   1.343       .  D
C869        H871   1.086       .  S
C870        H872   1.087       .  S
C873        C874   1.346       .  D
C873        H875   1.086       .  S
C874        H876   1.087       .  S
C877        C878   1.343       .  D
C877        H879   1.086   1_556  S
C878        H880   1.081       .  S
C881        C882   1.340       .  D
C881        H883   1.086       .  S
C882        H884   1.087       .  S
C885        C886   1.341       .  D
C885        H887   1.084       .  S
C886        H888   1.081       .  S
C889        C890   1.344       .  D
C889        H891   1.082       .  S
C890        H892   1.086       .  S
C893        C894   1.345       .  D
C893        H895   1.086       .  S
C894        H896   1.087       .  S
C897        C898   1.343       .  D
C897        H899   1.086       .  S
C898        H900   1.087       .  S
C901        C902   1.341       .  D
C901        H903   1.082       .  S
C902        H904   1.086       .  S
C905        C906   1.347       .  D
C905        H907   1.083       .  S
C906        H908   1.086       .  S
C909        C910   1.343       .  D
C909        H911   1.086       .  S
C910        H912   1.086       .  S
C913        C914   1.342       .  D
C913        H915   1.088       .  S
C914        H916   1.086       .  S
C917        C918   1.342       .  D
C917        H919   1.087       .  S
C918        H920   1.086       .  S
C921        C922   1.345       .  D
C921        H923   1.083       .  S
C922        H924   1.086       .  S
C925        C926   1.343       .  D
C925        H927   1.086       .  S
C926        H928   1.087       .  S
