geometry optimzed in LAMMPS
_audit_creation_date              2020-11-30 
_audit_creation_method            'lammps2cif' 
_symmetry_space_group_name_H-M    'P1' 
_symmetry_Int_Tables_number       1 
_symmetry_cell_setting            triclinic 
loop_ 
_symmetry_equiv_pos_as_xyz 
  x,y,z 
_cell_length_a                    47.2544973 
_cell_length_b                    42.839097229077424 
_cell_length_c                    41.909931983570814 
_cell_angle_alpha                 89.79895709763986 
_cell_angle_beta                  90.11376106377105 
_cell_angle_gamma                 90.36686167258142 
loop_ 
_atom_site_label 
_atom_site_type_symbol 
_atom_site_fract_x 
_atom_site_fract_y 
_atom_site_fract_z 
_atom_site_charge 
N1          N  0.01996232  0.08738795  0.02894532    -0.35600
N2          N  0.06496541  0.05261401  0.98740822    -0.56200
N3          N  0.07720394  0.01645215  0.04146780    -0.35600
N4          N  0.03617872  0.04992106  0.08150333    -0.56200
C5          C  0.01290795  0.09422333  0.99853195     0.28000
C6          C  0.99733072  0.09362472  0.04788623     0.28000
C7          C  0.09235712  0.00023391  0.01964905     0.28000
C8          C  0.08824978  0.01074616  0.07065309     0.28000
C9          C  0.04687273  0.06895463  0.46613905     0.36600
C10         C  0.07904479  0.03281217  0.47038259     0.36600
C11         C  0.01156497  0.05981509  0.09413328     0.36600
C12         C  0.05195168  0.03712689  0.10481294     0.36600
C13         C  0.48403826  0.11185288  0.99624967    -0.20900
C14         C  0.47641393  0.11331300  0.02796478    -0.20900
C15         C  0.11207822  0.98206226  0.03537720    -0.20900
C16         C  0.10997796  0.98921408  0.06743556    -0.20900
C17         C  0.05525220  0.06162507  0.43547394    -0.21900
C18         C  0.07580675  0.03912451  0.43802051    -0.21900
C19         C  0.01106263  0.05224983  0.12627577    -0.21900
C20         C  0.03701916  0.03876381  0.13329218    -0.21900
C21         C  0.01987337  0.07360835  0.97352512    -0.17300
C22         C  0.99058743  0.07701456  0.07711626    -0.17300
C23         C  0.07947665  0.02443583  0.10006958    -0.17300
C24         C  0.08939615  0.00453822  0.48425626    -0.17300
H25         H  0.47089263  0.11863302  0.97624982     0.15600
H26         H  0.45693127  0.12338670  0.03642722     0.15600
H27         H  0.12742449  0.96664249  0.02471449     0.15600
H28         H  0.12273070  0.97919785  0.08629651     0.15600
H29         H  0.04456464  0.06816734  0.41360362     0.13900
H30         H  0.08481550  0.02718214  0.41788002     0.13900
H31         H  0.99441218  0.05726788  0.14315287     0.13900
H32         H  0.04345882  0.03019484  0.15646520     0.13900
H33         H  0.03750895  0.07425958  0.03414906     0.27200
H34         H  0.05960596  0.02972805  0.03688625     0.27200
N35         N  0.49557229  0.00255724  0.43153519    -0.35600
N36         N  0.44630666  0.03069766  0.97239297    -0.56200
N37         N  0.41013770  0.97972383  0.45485844    -0.35600
N38         N  0.45178623  0.95550515  0.41244739    -0.56200
C39         C  0.50413644  0.01969673  0.95196707     0.28000
C40         C  0.50617910  0.97364547  0.43521820     0.28000
C41         C  0.39359636  0.99321599  0.97319268     0.28000
C42         C  0.39221211  0.96700628  0.43320488     0.28000
C43         C  0.47115942  0.04280837  0.98259847     0.36600
C44         C  0.43461674  0.01678306  0.99816098     0.36600
C45         C  0.47560937  0.94138275  0.40212276     0.36600
C46         C  0.42938581  0.93926674  0.40111752     0.36600
C47         C  0.02146169  0.00194486  0.47367419    -0.20900
C48         C  0.02146454  0.97289963  0.46108390    -0.20900
C49         C  0.36539200  0.99233505  0.96470902    -0.20900
C50         C  0.36490594  0.97702375  0.44065977    -0.20900
C51         C  0.47589937  0.03383056  0.01400548    -0.21900
C52         C  0.45243977  0.01838537  0.02418655    -0.21900
C53         C  0.46872813  0.91620412  0.38321231    -0.21900
C54         C  0.43945808  0.91476533  0.38249938    -0.21900
C55         C  0.49381139  0.04850521  0.96193215    -0.17300
C56         C  0.50270203  0.94925416  0.41372298    -0.17300
C57         C  0.40030342  0.94621018  0.40794208    -0.17300
C58         C  0.40618613  0.00819729  0.99964184    -0.17300
H59         H  0.03090332  0.00568642  0.99747286     0.15600
H60         H  0.03166857  0.95275620  0.47145847     0.15600
H61         H  0.34803033  0.00362249  0.97677305     0.15600
H62         H  0.34541615  0.97177252  0.42825872     0.15600
H63         H  0.49564475  0.03446184  0.02693248     0.13900
H64         H  0.44944434  0.00823124  0.04760561     0.13900
H65         H  0.48315072  0.89975207  0.37253187     0.13900
H66         H  0.42733004  0.89648669  0.37103359     0.13900
H67         H  0.48138879  0.01021109  0.41407350     0.32000
H68         H  0.43156447  0.97517175  0.45778742     0.27200
O69         O  0.38881577  0.42858047  0.18046418    -0.56800
C70         C  0.46588864  0.42259704  0.13612031     0.75800
O71         O  0.39034129  0.37644156  0.08988370    -0.58000
C72         C  0.36304558  0.43317815  0.17348588     0.75800
C73         C  0.39971078  0.47530112  0.08397689     0.78200
Cd74       Cd  0.40481822  0.41996442  0.12579974     1.37500
O75         O  0.44869391  0.43501859  0.15529711    -0.56800
O76         O  0.40251062  0.47611483  0.11386591    -0.55600
C77         C  0.38989189  0.35576436  0.11160483     0.78200
O78         O  0.39747482  0.44801103  0.07243739    -0.58000
O79         O  0.45518666  0.40372278  0.11627339    -0.56400
O80         O  0.35672734  0.43135889  0.14421631    -0.56400
O81         O  0.39557344  0.36534303  0.13944696    -0.55600
O82         O  0.38491914  0.02748931  0.13687508    -0.56800
C83         C  0.45896666  0.07046879  0.08143107     0.75800
O84         O  0.38388442  0.04839897  0.02923319    -0.58000
C85         C  0.35834486  0.02879695  0.13220900     0.75800
C86         C  0.38534928  0.12152517  0.09445012     0.78200
Cd87       Cd  0.39726906  0.05669202  0.08635018     1.37500
O88         O  0.45037636  0.05327219  0.10436892    -0.56800
O89         O  0.39763581  0.10529871  0.11547296    -0.55600
C90         C  0.39208202  0.02030128  0.02847624     0.78200
O91         O  0.37538595  0.10687186  0.07061403    -0.58000
O92         O  0.43956706  0.07883872  0.06263645    -0.56400
O93         O  0.35096873  0.04208302  0.10653864    -0.56400
O94         O  0.39712006  0.00760299  0.05524309    -0.55600
N95         N  0.00401531  0.49565805  0.11054244    -0.35600
N96         N  0.04567865  0.44708103  0.12843549    -0.56200
N97         N  0.08689604  0.46636393  0.08271670    -0.35600
N98         N  0.04917196  0.52135929  0.06530477    -0.56200
C99         C  0.99102594  0.46764128  0.10791411     0.28000
C100        C  0.99141601  0.51441710  0.08888691     0.28000
C101        C  0.10498260  0.45564210  0.10522603     0.28000
C102        C  0.10143025  0.48399041  0.06137402     0.28000
C103        C  0.02159496  0.43356772  0.13939746     0.36600
C104        C  0.06776459  0.43040989  0.13959900     0.36600
C105        C  0.02456332  0.53407862  0.05581604     0.36600
C106        C  0.05923002  0.50649844  0.03946464     0.36600
C107        C  0.46814554  0.46462755  0.08405921    -0.20900
C108        C  0.46919751  0.49343124  0.07075283    -0.20900
C109        C  0.13211623  0.46603716  0.09701314    -0.20900
C110        C  0.12982818  0.48359994  0.06902797    -0.20900
C111        C  0.02806333  0.40822838  0.15839675    -0.21900
C112        C  0.05733026  0.40627996  0.15876821    -0.21900
C113        C  0.01652938  0.52415123  0.52366970    -0.21900
C114        C  0.04006523  0.50961610  0.51278445    -0.21900
C115        C  0.99448035  0.44240922  0.12868405    -0.17300
C116        C  0.00331219  0.54211825  0.07725499    -0.17300
C117        C  0.08772780  0.49986987  0.03613598    -0.17300
C118        C  0.09691779  0.43679850  0.13226024    -0.17300
H119        H  0.45554080  0.44531110  0.07536571     0.15600
H120        H  0.45935962  0.49970446  0.04847670     0.15600
H121        H  0.15163557  0.46211126  0.10981340     0.15600
H122        H  0.14681916  0.49548374  0.05657400     0.15600
H123        H  0.01333331  0.39217247  0.16960535     0.13900
H124        H  0.06927339  0.38802389  0.17040050     0.13900
H125        H  0.99654274  0.52528765  0.51120621     0.13900
H126        H  0.04293648  0.49939885  0.48948450     0.13900
H127        H  0.02006173  0.50198457  0.12648255     0.27200
H128        H  0.06553057  0.46089669  0.08022421     0.27200
N129        N  0.47994533  0.58191062  0.51350565    -0.35600
N130        N  0.45839597  0.54493894  0.46306693    -0.56200
N131        N  0.41644504  0.51520485  0.50630366    -0.35600
N132        N  0.43240307  0.55042452  0.05811741    -0.56200
C133        C  0.50216174  0.58557637  0.49325131     0.28000
C134        C  0.48793452  0.58567343  0.04242668     0.28000
C135        C  0.40347902  0.51052142  0.47799168     0.28000
C136        C  0.39782071  0.50135952  0.03016713     0.28000
C137        C  0.48283163  0.55307584  0.44845761     0.36600
C138        C  0.44113562  0.53174496  0.44133164     0.36600
C139        C  0.45174011  0.56385420  0.07743118     0.36600
C140        C  0.41580313  0.53169005  0.07616459     0.36600
C141        C  0.02480446  0.60083014  0.51034224    -0.20900
C142        C  0.01870616  0.60113563  0.04016153    -0.20900
C143        C  0.37932404  0.49239464  0.48312253    -0.20900
C144        C  0.37490656  0.48605768  0.01678491    -0.20900
C145        C  0.48168803  0.54388690  0.41688296    -0.21900
C146        C  0.45499196  0.53116054  0.41209344    -0.21900
C147        C  0.44453839  0.55753030  0.10878476    -0.21900
C148        C  0.42148180  0.53775065  0.10813801    -0.21900
C149        C  0.50533345  0.57003752  0.46308191    -0.17300
C150        C  0.48023808  0.56560819  0.06777713    -0.17300
C151        C  0.40262763  0.50422251  0.06351954    -0.17300
C152        C  0.41278559  0.52197757  0.44768825    -0.17300
H153        H  0.04616738  0.60580024  0.50293194     0.15600
H154        H  0.03391662  0.60444119  0.05922621     0.15600
H155        H  0.36458377  0.48382926  0.46535616     0.15600
H156        H  0.35826028  0.47359013  0.02925715     0.15600
H157        H  0.49783642  0.54727496  0.39890492     0.13900
H158        H  0.44727880  0.52179738  0.38977821     0.13900
H159        H  0.45723823  0.56261731  0.12968019     0.13900
H160        H  0.41239986  0.52700215  0.12909109     0.13900
H161        H  0.46043039  0.57174619  0.50911720     0.27200
H162        H  0.43585619  0.52601059  0.50938096     0.27200
O163        O  0.10469634  0.92593285  0.36889166    -0.56800
C164        C  0.02650393  0.93078804  0.40930582     0.75800
O165        O  0.10349965  0.87799663  0.45852876    -0.58000
C166        C  0.13055092  0.92950835  0.37620562     0.75800
C167        C  0.09178139  0.97540620  0.46452248     0.78200
Cd168      Cd  0.08623436  0.92048907  0.42307248     1.37500
O169        O  0.04587881  0.94144099  0.39144811    -0.56800
O170        O  0.09291606  0.97625089  0.43452329    -0.55600
C171        C  0.09407727  0.85592552  0.44136731     0.78200
O172        O  0.08996731  0.94818162  0.47648455    -0.58000
O173        O  0.03411758  0.91090764  0.42995101    -0.56400
O174        O  0.13629087  0.92697524  0.40556095    -0.56400
O175        O  0.08065709  0.86368426  0.41644641    -0.55600
O176        O  0.04585252  0.53961752  0.44490919    -0.56800
C177        C  0.13620177  0.53327427  0.40319035     0.75800
O178        O  0.11786354  0.60398910  0.47677616    -0.58000
C179        C  0.03581524  0.56625865  0.45139601     0.75800
C180        C  0.10064100  0.51770834  0.50811497     0.78200
Cd181      Cd  0.09762016  0.55698550  0.45084338     1.37500
O182        O  0.11032033  0.53706037  0.39608843    -0.56800
O183        O  0.09820716  0.50618526  0.48048348    -0.55600
C184        C  0.11304590  0.62226482  0.45351864     0.78200
O185        O  0.10611701  0.54670876  0.50918539    -0.58000
O186        O  0.14291206  0.53969913  0.43162583    -0.56400
O187        O  0.05361956  0.58822158  0.45157289    -0.56400
O188        O  0.10422729  0.60935759  0.42819299    -0.55600
N189        N  0.21961066  0.87704811  0.28424386    -0.35600
N190        N  0.17413106  0.90823267  0.24147649    -0.56200
N191        N  0.15722744  0.94448293  0.29294791    -0.35600
N192        N  0.19821907  0.91310306  0.33523257    -0.56200
C193        C  0.22869831  0.87111715  0.25440287     0.28000
C194        C  0.24198951  0.87371693  0.30436391     0.28000
C195        C  0.14103805  0.95778750  0.26987155     0.28000
C196        C  0.14346020  0.94709420  0.32104136     0.28000
C197        C  0.19138865  0.89315104  0.22123177     0.36600
C198        C  0.15694771  0.92667642  0.22401607     0.36600
C199        C  0.22326788  0.90634595  0.34911702     0.36600
C200        C  0.18107795  0.92558759  0.35729245     0.36600
C201        C  0.25530771  0.85801367  0.25604914    -0.20900
C202        C  0.26369810  0.85936713  0.28744544    -0.20900
C203        C  0.11758631  0.97123249  0.28360200    -0.20900
C204        C  0.11879927  0.96410300  0.31576791    -0.20900
C205        C  0.18222445  0.89847526  0.19032689    -0.21900
C206        C  0.16010438  0.91915421  0.19200673    -0.21900
C207        C  0.22254023  0.91546077  0.38074383    -0.21900
C208        C  0.19551752  0.92679509  0.38622013    -0.21900
C209        C  0.22038034  0.89024500  0.22855757    -0.17300
C210        C  0.24581409  0.89037859  0.33383209    -0.17300
C211        C  0.15258887  0.93482889  0.35117888    -0.17300
C212        C  0.14514066  0.95470675  0.23650223    -0.17300
H213        H  0.26911524  0.85318797  0.23610585     0.15600
H214        H  0.28496312  0.85428141  0.29517603     0.15600
H215        H  0.10049007  0.98308337  0.27145084     0.15600
H216        H  0.10334549  0.97128597  0.33321738     0.15600
H217        H  0.19307471  0.89187983  0.16867331     0.13900
H218        H  0.14976042  0.92930511  0.17150035     0.13900
H219        H  0.23918959  0.91287450  0.39830579     0.13900
H220        H  0.18797977  0.93583002  0.40867967     0.13900
H221        H  0.20055989  0.88794319  0.28847417     0.27200
H222        H  0.17719270  0.93523956  0.28970629     0.27200
N223        N  0.24197200  0.96088562  0.18204481    -0.35600
N224        N  0.28796082  0.93534995  0.22693652    -0.56200
N225        N  0.32726830  0.98704041  0.20505774    -0.35600
N226        N  0.28493351  0.00737998  0.16061983    -0.56200
C227        C  0.22963495  0.94376296  0.20536452     0.28000
C228        C  0.23007730  0.98937654  0.18377418     0.28000
C229        C  0.34185818  0.96923102  0.22610162     0.28000
C230        C  0.34462068  0.99566656  0.18093233     0.28000
C231        C  0.26310821  0.92429701  0.23795511     0.36600
C232        C  0.29993809  0.95020033  0.25187957     0.36600
C233        C  0.26105246  0.02230225  0.15130105     0.36600
C234        C  0.30735147  0.02402983  0.14970406     0.36600
C235        C  0.21234955  0.96258908  0.22356492    -0.20900
C236        C  0.21169076  0.99092428  0.20930330    -0.20900
C237        C  0.36954730  0.96677293  0.21615932    -0.20900
C238        C  0.37128104  0.98301871  0.18731778    -0.20900
C239        C  0.25847745  0.93477717  0.26880948    -0.21900
C240        C  0.28214827  0.95052661  0.27788457    -0.21900
C241        C  0.26793997  0.04860803  0.13388576    -0.21900
C242        C  0.29719853  0.04982736  0.13283534    -0.21900
C243        C  0.24070873  0.91616908  0.21782958    -0.17300
C244        C  0.23378644  0.01377464  0.16207557    -0.17300
C245        C  0.33650135  0.01576900  0.15491972    -0.17300
C246        C  0.32880085  0.95601080  0.25332636    -0.17300
H247        H  0.20365436  0.95750870  0.24677633     0.15600
H248        H  0.20043486  0.01102845  0.21808993     0.15600
H249        H  0.38634171  0.95392522  0.22775013     0.15600
H250        H  0.39016603  0.98465764  0.17295332     0.15600
H251        H  0.23895553  0.93392665  0.28214812     0.13900
H252        H  0.28565431  0.96186907  0.30054742     0.13900
H253        H  0.25352877  0.06585959  0.12439876     0.13900
H254        H  0.30923702  0.06879585  0.12240355     0.13900
H255        H  0.25713087  0.95327180  0.16576528     0.27200
H256        H  0.30666175  0.99457873  0.20894756     0.27200
O257        O  0.14444686  0.41928866  0.14753343    -0.56800
C258        C  0.22016915  0.39184174  0.20262279     0.75800
O259        O  0.14953368  0.41202625  0.26067503    -0.58000
C260        C  0.11884004  0.42438167  0.15499071     0.75800
C261        C  0.14114719  0.33512924  0.20925633     0.78200
Cd262      Cd  0.15822127  0.39987721  0.20273850     1.37500
O263        O  0.20936938  0.41827696  0.19692495    -0.56800
O264        O  0.14479222  0.34794239  0.18227126    -0.55600
C265        C  0.15563292  0.44082024  0.25844192     0.78200
O266        O  0.14303522  0.35290460  0.23331509    -0.58000
O267        O  0.20315302  0.36910622  0.20146624    -0.56400
O268        O  0.11248066  0.41838908  0.18366588    -0.56400
O269        O  0.15866819  0.45129272  0.23039705    -0.55600
O270        O  0.18757663  0.01723598  0.14034720    -0.56800
C271        C  0.10160034  0.02816188  0.12531615     0.75800
O272        O  0.13841588  0.01049597  0.22596263    -0.58000
C273        C  0.20696786  0.03069984  0.15608065     0.75800
C274        C  0.13991278  0.10162308  0.18952182     0.78200
Cd275      Cd  0.14678366  0.03725625  0.17163399     1.37500
O276        O  0.12750600  0.03048763  0.11793224    -0.56800
O277        O  0.14429873  0.09309967  0.16109091    -0.55600
C278        C  0.14223322  0.98312639  0.21536610     0.78200
O279        O  0.13823659  0.08012556  0.21032189    -0.58000
O280        O  0.09610550  0.03072904  0.15470477    -0.56400
O281        O  0.19886210  0.05181729  0.17491955    -0.56400
O282        O  0.14654820  0.98180584  0.18574298    -0.55600
N283        N  0.25322152  0.46571938  0.36425089    -0.35600
N284        N  0.20831138  0.43998840  0.31583404    -0.56200
N285        N  0.16900739  0.49176304  0.33184252    -0.35600
N286        N  0.20970915  0.51361182  0.37851037    -0.56200
C287        C  0.26612363  0.44840221  0.34180852     0.28000
C288        C  0.26526007  0.49425045  0.36236878     0.28000
C289        C  0.15473841  0.47356961  0.31076017     0.28000
C290        C  0.15065685  0.50234118  0.35394736     0.28000
C291        C  0.23386166  0.42938608  0.30722835     0.36600
C292        C  0.19720536  0.45210274  0.28890208     0.36600
C293        C  0.23292353  0.52795577  0.39076440     0.36600
C294        C  0.18694637  0.53019835  0.38755871     0.36600
C295        C  0.28408785  0.46712237  0.32392422    -0.20900
C296        C  0.28444000  0.49570378  0.33759260    -0.20900
C297        C  0.12635669  0.47334091  0.31830450    -0.20900
C298        C  0.12374244  0.49113384  0.34589219    -0.20900
C299        C  0.23992858  0.43776054  0.27598028    -0.21900
C300        C  0.21613177  0.45110318  0.26393624    -0.21900
C301        C  0.22524121  0.55392651  0.40794731    -0.21900
C302        C  0.19606809  0.55538198  0.40604498    -0.21900
C303        C  0.25471450  0.42107811  0.32922992    -0.17300
C304        C  0.26062625  0.51880241  0.38327367    -0.17300
C305        C  0.15819427  0.52198743  0.38038187    -0.17300
C306        C  0.16849445  0.45778612  0.28570177    -0.17300
H307        H  0.29330972  0.46179596  0.30111343     0.15600
H308        H  0.29590834  0.51588201  0.32879706     0.15600
H309        H  0.10958452  0.46095045  0.30599629     0.15600
H310        H  0.10411657  0.49477942  0.35844434     0.15600
H311        H  0.26001674  0.43609411  0.26386520     0.13900
H312        H  0.21326243  0.46007567  0.24002769     0.13900
H313        H  0.23915086  0.57049415  0.41964584     0.13900
H314        H  0.18325019  0.57366716  0.41618118     0.13900
H315        H  0.23735859  0.45832173  0.37993087     0.27200
H316        H  0.19034033  0.49761068  0.32973744     0.27200
N317        N  0.27483865  0.37680738  0.26661778    -0.35600
N318        N  0.29695913  0.41265661  0.21491427    -0.56200
N319        N  0.33772507  0.44621987  0.25702058    -0.35600
N320        N  0.32087518  0.41050800  0.30889740    -0.56200
C321        C  0.25222703  0.37403159  0.24666097     0.28000
C322        C  0.26526409  0.37327008  0.29679553     0.28000
C323        C  0.35080397  0.45012842  0.22869206     0.28000
C324        C  0.35377426  0.46029158  0.27982188     0.28000
C325        C  0.27230809  0.40456384  0.20062661     0.36600
C326        C  0.31330791  0.42716781  0.19305693     0.36600
C327        C  0.30299632  0.39596506  0.32906530     0.36600
C328        C  0.33808028  0.42913726  0.32620484     0.36600
C329        C  0.22934286  0.36316767  0.26453592    -0.20900
C330        C  0.23776063  0.36216042  0.29585619    -0.20900
C331        C  0.37488353  0.46848389  0.23338285    -0.20900
C332        C  0.37638220  0.47539613  0.26556145    -0.20900
C333        C  0.27262919  0.41462196  0.16923337    -0.21900
C334        C  0.29880893  0.42830738  0.16419646    -0.21900
C335        C  0.31175023  0.40170138  0.36003288    -0.21900
C336        C  0.33438156  0.42204057  0.35832121    -0.21900
C337        C  0.24963115  0.38833628  0.21570795    -0.17300
C338        C  0.27412686  0.39382838  0.32115125    -0.17300
C339        C  0.34995292  0.45723822  0.31330843    -0.17300
C340        C  0.34143704  0.43796490  0.19877977    -0.17300
H341        H  0.20742431  0.36184028  0.25755301     0.15600
H342        H  0.22348977  0.36023833  0.31596548     0.15600
H343        H  0.38965352  0.47663529  0.21545892     0.15600
H344        H  0.39310552  0.48837453  0.27732361     0.15600
H345        H  0.25600579  0.41182730  0.15165568     0.13900
H346        H  0.30565528  0.43896261  0.14208421     0.13900
H347        H  0.30036660  0.39566699  0.38160264     0.13900
H348        H  0.34459745  0.43244132  0.37878812     0.13900
H349        H  0.29478023  0.38567806  0.26155807     0.27200
H350        H  0.31818082  0.43565390  0.26028138     0.27200
O351        O  0.30539873  0.52222066  0.40806265    -0.56800
C352        C  0.39067918  0.52725139  0.42292403     0.75800
O353        O  0.35668364  0.51328215  0.32315457    -0.58000
C354        C  0.28705649  0.53572052  0.39095666     0.75800
C355        C  0.35657065  0.60499692  0.36281697     0.78200
Cd356      Cd  0.34710752  0.54005360  0.37703284     1.37500
O357        O  0.36525696  0.53258953  0.43075033    -0.56800
O358        O  0.35909549  0.59380362  0.39059692    -0.55600
C359        C  0.35236402  0.48593684  0.33400485     0.78200
O360        O  0.35125173  0.58552009  0.34079861    -0.58000
O361        O  0.39609513  0.52852248  0.39339011    -0.56400
O362        O  0.29630377  0.55644420  0.37210954    -0.56400
O363        O  0.34695772  0.48481623  0.36341266    -0.55600
O364        O  0.28660619  0.92317219  0.34651749    -0.56800
C365        C  0.37820509  0.93198532  0.38654355     0.75800
O366        O  0.35388484  0.85648751  0.31382229    -0.58000
C367        C  0.27585628  0.89605052  0.34440612     0.75800
C368        C  0.34198374  0.94145375  0.28181670     0.78200
Cd369      Cd  0.33811646  0.90498275  0.34102113     1.37500
O370        O  0.35269458  0.92713241  0.39467698    -0.56800
O371        O  0.33864434  0.95394357  0.30886583    -0.55600
C372        C  0.35113133  0.83939932  0.33841287     0.78200
O373        O  0.34773301  0.91259305  0.28216741    -0.58000
O374        O  0.38423119  0.92415516  0.35836571    -0.56400
O375        O  0.29327407  0.87404965  0.34660311    -0.56400
O376        O  0.34556230  0.85349667  0.36414944    -0.55600
C377        C  0.37190149  0.69255396  0.36912142    -0.10900
C378        C  0.35456252  0.70412258  0.34470268     0.11700
C379        C  0.33946440  0.68307263  0.32496205    -0.02700
C380        C  0.34153521  0.65087004  0.33121578    -0.05400
C381        C  0.35792550  0.63918035  0.35658145    -0.16200
C382        C  0.37368275  0.66040592  0.37581550     0.02700
C383        C  0.35199212  0.73856934  0.34154377     0.12700
C384        C  0.32125749  0.69452129  0.29746679     0.63300
H385        H  0.32971125  0.63452007  0.31664493     0.12700
C386        C  0.39238007  0.64960304  0.40323132     0.55400
H387        H  0.38344798  0.70923236  0.38360460     0.08500
C388        C  0.33509866  0.75600331  0.36276442    -0.05300
C389        C  0.33561553  0.78870516  0.36050792    -0.06000
C390        C  0.35211714  0.80461528  0.33766833    -0.15600
C391        C  0.36805632  0.78700481  0.31542750    -0.01200
C392        C  0.36796449  0.75412925  0.31812929    -0.08800
C393        C  0.31691158  0.74023872  0.38811370     0.65500
H394        H  0.32301812  0.80221769  0.37693692     0.11000
C395        C  0.38565400  0.80257050  0.28957330     0.63900
H396        H  0.38068651  0.74019275  0.30220224     0.08300
F397        F  0.37582747  0.63788034  0.42772412    -0.19100
F398        F  0.40854272  0.67381039  0.41556197    -0.15400
F399        F  0.41069776  0.62677459  0.39275485    -0.18900
F400        F  0.33831851  0.70805355  0.27445670    -0.22200
F401        F  0.30204484  0.71632693  0.30810601    -0.23700
F402        F  0.30616851  0.67038927  0.28338947    -0.17700
F403        F  0.40111105  0.78111534  0.27230800    -0.20200
F404        F  0.40446765  0.82350403  0.30321504    -0.21300
F405        F  0.36814705  0.81811887  0.26844105    -0.18500
F406        F  0.29914594  0.76122042  0.40301177    -0.18600
F407        F  0.33403042  0.72695246  0.41114719    -0.22500
F408        F  0.30018265  0.71725130  0.37452163    -0.24100
C409        C  0.14847810  0.24911034  0.23142634    -0.10900
C410        C  0.13215427  0.23513160  0.20751141     0.11700
C411        C  0.11576319  0.25402494  0.18682958    -0.02700
C412        C  0.11793619  0.28676059  0.18954680    -0.05400
C413        C  0.13604678  0.30090272  0.21195777    -0.16200
C414        C  0.15148898  0.28170486  0.23346960     0.02700
C415        C  0.13460497  0.20077890  0.20352751     0.12700
C416        C  0.09665310  0.23969915  0.16158374     0.63300
H417        H  0.10625783  0.30165524  0.17333875     0.12700
C418        C  0.17346543  0.29510423  0.25603384     0.55400
H419        H  0.16047795  0.23401420  0.24713613     0.08500
C420        C  0.15755023  0.18751436  0.18671173    -0.05300
C421        C  0.15864736  0.15491761  0.18360738    -0.06000
C422        C  0.13813092  0.13526031  0.19730705    -0.15600
C423        C  0.11610930  0.14837223  0.21578057    -0.01200
C424        C  0.11470614  0.18116776  0.21847141    -0.08800
C425        C  0.18074297  0.20763150  0.17192252     0.65500
H426        H  0.17565174  0.14436688  0.17020627     0.11000
C427        C  0.09349809  0.12808972  0.23122913     0.63900
H428        H  0.09785055  0.19187486  0.23196181     0.08300
F429        F  0.19341937  0.31120951  0.23837897    -0.19100
F430        F  0.18742201  0.27211373  0.27309317    -0.15400
F431        F  0.16085690  0.31485133  0.27771254    -0.18900
F432        F  0.07689813  0.22031717  0.17591332    -0.22200
F433        F  0.11252044  0.22249554  0.14037851    -0.23700
F434        F  0.08221756  0.26226007  0.14442222    -0.17700
F435        F  0.07435792  0.14563036  0.24841859    -0.20200
F436        F  0.10576482  0.10706433  0.25209153    -0.21300
F437        F  0.07878544  0.11198804  0.20787669    -0.18500
F438        F  0.20063649  0.18985191  0.15611415    -0.18600
F439        F  0.19470617  0.22431508  0.19539030    -0.22500
F440        F  0.16915440  0.22823002  0.15017230    -0.24100
C441        C  0.12884367  0.77703381  0.45395997    -0.10900
C442        C  0.10507085  0.75737735  0.45591608     0.11700
C443        C  0.07767294  0.77060844  0.45720515    -0.02700
C444        C  0.07491568  0.80311907  0.45300293    -0.05400
C445        C  0.09867942  0.82262582  0.44933234    -0.16200
C446        C  0.12613371  0.80962834  0.45083665     0.02700
C447        C  0.10957595  0.72299508  0.45513762     0.12700
C448        C  0.05158452  0.75048922  0.46301274     0.63300
H449        H  0.05412369  0.81360440  0.45233382     0.12700
C450        C  0.15237750  0.82999225  0.44779340     0.55400
H451        H  0.14958992  0.76643343  0.45392378     0.08500
C452        C  0.11259655  0.70678993  0.42600076    -0.05300
C453        C  0.11538894  0.67408377  0.42675320    -0.06000
C454        C  0.11545222  0.65707037  0.45560191    -0.15600
C455        C  0.11426859  0.67377586  0.48491849    -0.01200
C456        C  0.11135975  0.70655064  0.48400795    -0.08800
C457        C  0.11254099  0.72406508  0.39423715     0.65500
H458        H  0.11689255  0.66142850  0.40451521     0.11000
C459        C  0.11526175  0.65740678  0.51711188     0.63900
H460        H  0.10981843  0.71972089  0.50593418     0.08300
F461        F  0.15179278  0.84598698  0.41906668    -0.19100
F462        F  0.17694286  0.81258821  0.44888503    -0.15400
F463        F  0.15330546  0.85115092  0.47261124    -0.18900
F464        F  0.05434004  0.73478818  0.49172132    -0.22200
F465        F  0.04838674  0.72898854  0.43874748    -0.23700
F466        F  0.02719957  0.76818728  0.46447613    -0.17700
F467        F  0.11416436  0.67828710  0.54219652    -0.20200
F468        F  0.14023787  0.64093732  0.51991230    -0.21300
F469        F  0.08642238  0.63946610  0.02663804    -0.18500
F470        F  0.11481935  0.70389582  0.36865058    -0.18600
F471        F  0.13515504  0.74466666  0.39303774    -0.22500
F472        F  0.08767131  0.74055399  0.39071783    -0.24100
C473        C  0.40420488  0.20699037  0.10797132    -0.10900
C474        C  0.37944284  0.22169937  0.09772365     0.11700
C475        C  0.35652027  0.20356255  0.08614503    -0.02700
C476        C  0.35916762  0.17082329  0.08566382    -0.05400
C477        C  0.38364067  0.15596069  0.09701769    -0.16200
C478        C  0.40665345  0.17435529  0.10854777     0.02700
C479        C  0.37829702  0.25621074  0.10066540     0.12700
C480        C  0.32948886  0.21874052  0.07441835     0.63300
H481        H  0.34201165  0.15650979  0.07655700     0.12700
C482        C  0.43408913  0.16005347  0.12063025     0.55400
H483        H  0.42154729  0.22156723  0.11616602     0.08500
C484        C  0.37494994  0.27065639  0.13067420    -0.05300
C485        C  0.37745031  0.30329591  0.13259046    -0.06000
C486        C  0.38372078  0.32196000  0.10572358    -0.15600
C487        C  0.38593948  0.30737785  0.07532662    -0.01200
C488        C  0.38327032  0.27459562  0.07350520    -0.08800
C489        C  0.36973010  0.25154276  0.16079488     0.65500
H490        H  0.37548493  0.31438803  0.15563932     0.11000
C491        C  0.39221667  0.32575226  0.04506704     0.63900
H492        H  0.38608538  0.26279438  0.05093930     0.08300
F493        F  0.42897720  0.14244629  0.14774906    -0.19100
F494        F  0.45402294  0.18257454  0.12855105    -0.15400
F495        F  0.44564796  0.14140416  0.09725587    -0.18900
F496        F  0.33509454  0.23630382  0.04741327    -0.22200
F497        F  0.31867052  0.23794845  0.09779479    -0.23700
F498        F  0.30895095  0.19679020  0.06680457    -0.17700
F499        F  0.41808924  0.34077931  0.04794449    -0.20200
F500        F  0.37115251  0.34744242  0.03977534    -0.21300
F501        F  0.39338541  0.30670767  0.01847885    -0.18500
F502        F  0.36319533  0.27026308  0.18656100    -0.18600
F503        F  0.39368183  0.23475047  0.16851993    -0.22500
F504        F  0.34738838  0.23104995  0.15614075    -0.24100
N505        N  0.01931491  0.08650339  0.52932582    -0.35600
N506        N  0.06344629  0.05342457  0.48702438    -0.56200
N507        N  0.07712014  0.01621964  0.54023419    -0.35600
N508        N  0.03786919  0.05094983  0.58194819    -0.56200
C509        C  0.01159919  0.09423235  0.49938018     0.28000
C510        C  0.99745424  0.09288324  0.54926960     0.28000
C511        C  0.09282746  0.00172704  0.51773225     0.28000
C512        C  0.08964751  0.01147447  0.56881795     0.28000
C513        C  0.04857880  0.06805386  0.96630178     0.36600
C514        C  0.08012270  0.03120851  0.97128447     0.36600
C515        C  0.01238684  0.05799173  0.59437422     0.36600
C516        C  0.05295229  0.03541692  0.60398554     0.36600
C517        C  0.48404199  0.10945987  0.49791678    -0.20900
C518        C  0.47440427  0.10878373  0.52889275    -0.20900
C519        C  0.11453156  0.98556894  0.53226691    -0.20900
C520        C  0.11288425  0.99211332  0.56441953    -0.20900
C521        C  0.05671639  0.05980563  0.93578266    -0.21900
C522        C  0.07666161  0.03669632  0.93876034    -0.21900
C523        C  0.01101190  0.04648546  0.62529877    -0.21900
C524        C  0.03708412  0.03296095  0.63173353    -0.21900
C525        C  0.01817657  0.07447433  0.47348197    -0.17300
C526        C  0.99118715  0.07556717  0.57814248    -0.17300
C527        C  0.08071617  0.02388772  0.59871612    -0.17300
C528        C  0.09019714  0.00307553  0.98586402    -0.17300
H529        H  0.47093015  0.11387515  0.47719120     0.15600
H530        H  0.45293197  0.11423357  0.53537487     0.15600
H531        H  0.13075143  0.97194934  0.52071092     0.15600
H532        H  0.12698947  0.98299470  0.58249719     0.15600
H533        H  0.04585497  0.06580792  0.91385411     0.13900
H534        H  0.08468327  0.02368749  0.91880520     0.13900
H535        H  0.99352700  0.04851172  0.64178039     0.13900
H536        H  0.04305337  0.02150841  0.65375841     0.13900
H537        H  0.03637042  0.07216606  0.53340723     0.27200
H538        H  0.05817960  0.02756599  0.53638339     0.27200
N539        N  0.49274589  0.00235380  0.92839676    -0.35600
N540        N  0.44930948  0.03287851  0.47410294    -0.56200
N541        N  0.40882621  0.97635879  0.95212591    -0.35600
N542        N  0.45071174  0.95503792  0.90827301    -0.56200
C543        C  0.50785953  0.02006612  0.45441723     0.28000
C544        C  0.50475180  0.97398647  0.93123059     0.28000
C545        C  0.39510875  0.99738632  0.47539559     0.28000
C546        C  0.39113755  0.96494736  0.92946383     0.28000
C547        C  0.47470468  0.04285197  0.48474059     0.36600
C548        C  0.43669170  0.02000800  0.49983648     0.36600
C549        C  0.47473801  0.94127767  0.89797332     0.36600
C550        C  0.42852068  0.93869128  0.89656877     0.36600
C551        C  0.02282765  0.00040255  0.97401664    -0.20900
C552        C  0.02348123  0.97194795  0.96008317    -0.20900
C553        C  0.36678722  0.99575234  0.46766033    -0.20900
C554        C  0.36382640  0.97498810  0.93672256    -0.20900
C555        C  0.47887123  0.03346255  0.51609019    -0.21900
C556        C  0.45443796  0.01989973  0.52596680    -0.21900
C557        C  0.46816537  0.91621464  0.87875105    -0.21900
C558        C  0.43889223  0.91456754  0.87767348    -0.21900
C559        C  0.49749184  0.04878122  0.46451413    -0.17300
C560        C  0.50174470  0.94951652  0.90966754    -0.17300
C561        C  0.39936789  0.94508640  0.90352235    -0.17300
C562        C  0.40792825  0.01330860  0.50106745    -0.17300
H563        H  0.02999334  0.00790550  0.49670152     0.15600
H564        H  0.03325480  0.95136486  0.97002613     0.15600
H565        H  0.34950700  0.00721793  0.47969761     0.15600
H566        H  0.34460307  0.97070041  0.92341355     0.15600
H567        H  0.49848139  0.03351515  0.52935620     0.13900
H568        H  0.45068043  0.00943247  0.54906161     0.13900
H569        H  0.48279365  0.90006977  0.86793718     0.13900
H570        H  0.42693754  0.89640539  0.86578963     0.13900
H571        H  0.47841855  0.00983625  0.91100677     0.32000
H572        H  0.43017358  0.97139577  0.95525973     0.27200
O573        O  0.38533591  0.43600361  0.67969716    -0.56800
C574        C  0.46585890  0.42586133  0.63839367     0.75800
O575        O  0.39263983  0.37681743  0.59419661    -0.58000
C576        C  0.35946904  0.43557036  0.67141177     0.75800
C577        C  0.40076247  0.47597115  0.58352994     0.78200
Cd578      Cd  0.40473869  0.42257843  0.62742992     1.37500
O579        O  0.44845271  0.43993349  0.65616257    -0.56800
O580        O  0.40112841  0.47762528  0.61350617    -0.55600
C581        C  0.39427316  0.35725195  0.61700232     0.78200
O582        O  0.40007766  0.44837601  0.57250045    -0.58000
O583        O  0.45525743  0.40566418  0.61992911    -0.56400
O584        O  0.35463186  0.42907522  0.64248651    -0.56400
O585        O  0.39926609  0.36853805  0.64428796    -0.55600
O586        O  0.38506895  0.03725102  0.64233577    -0.56800
C587        C  0.46017894  0.07389265  0.58812052     0.75800
O588        O  0.38687144  0.05454410  0.53048595    -0.58000
C589        C  0.35954981  0.03159248  0.63443911     0.75800
C590        C  0.37878459  0.12502189  0.58833720     0.78200
Cd591      Cd  0.39775447  0.06160980  0.58865917     1.37500
O592        O  0.45040225  0.04721369  0.59574389    -0.56800
O593        O  0.38214363  0.11025204  0.61429293    -0.55600
C594        C  0.39414944  0.02616804  0.52972223     0.78200
O595        O  0.38093123  0.10950906  0.56277428    -0.58000
O596        O  0.44184994  0.09504901  0.58635618    -0.56400
O597        O  0.35297279  0.03903659  0.60617906    -0.56400
O598        O  0.39815638  0.01318060  0.55648718    -0.55600
N599        N  0.00079407  0.49454333  0.60873253    -0.35600
N600        N  0.04214008  0.44565882  0.62538360    -0.56200
N601        N  0.08453550  0.46692211  0.58116444    -0.35600
N602        N  0.04742310  0.52229476  0.56431777    -0.56200
C603        C  0.98765773  0.46665927  0.60597841     0.28000
C604        C  0.98845401  0.51340612  0.58707168     0.28000
C605        C  0.10209622  0.45501637  0.60356375     0.28000
C606        C  0.09984798  0.48461908  0.56054078     0.28000
C607        C  0.01812533  0.43271710  0.63723772     0.36600
C608        C  0.06422403  0.42951758  0.63723219     0.36600
C609        C  0.02221261  0.53345132  0.55472381     0.36600
C610        C  0.05856210  0.50886489  0.53817774     0.36600
C611        C  0.47004376  0.46502297  0.58370355    -0.20900
C612        C  0.47134988  0.49358834  0.56970713    -0.20900
C613        C  0.12958773  0.46475815  0.59601310    -0.20900
C614        C  0.12811984  0.48304338  0.56851294    -0.20900
C615        C  0.02458644  0.40816156  0.65722561    -0.21900
C616        C  0.05381325  0.40613516  0.65740801    -0.21900
C617        C  0.01817454  0.52485529  0.02488083    -0.21900
C618        C  0.04046019  0.50794246  0.01434077    -0.21900
C619        C  0.99100702  0.44157355  0.62681172    -0.17300
C620        C  0.00061106  0.54108804  0.57596297    -0.17300
C621        C  0.08706464  0.50184485  0.53565777    -0.17300
C622        C  0.09339857  0.43601364  0.63021083    -0.17300
H623        H  0.45787493  0.44528639  0.57516803     0.15600
H624        H  0.46192951  0.49953823  0.54709843     0.15600
H625        H  0.14885494  0.46002271  0.60899601     0.15600
H626        H  0.14556056  0.49475885  0.55669714     0.15600
H627        H  0.00987735  0.39279747  0.66943125     0.13900
H628        H  0.06575963  0.38844103  0.66991464     0.13900
H629        H  0.99822317  0.52713165  0.01251378     0.13900
H630        H  0.04253771  0.49709719  0.99122901     0.13900
H631        H  0.01676547  0.50073728  0.62482217     0.27200
H632        H  0.06299412  0.46251024  0.57850563     0.27200
N633        N  0.47758820  0.58108345  0.01276332    -0.35600
N634        N  0.45462455  0.54497986  0.96219123    -0.56200
N635        N  0.41383603  0.51430911  0.00661668    -0.35600
N636        N  0.43427765  0.55083929  0.55810337    -0.56200
C637        C  0.49928502  0.58502935  0.99184181     0.28000
C638        C  0.48949169  0.58693090  0.54341496     0.28000
C639        C  0.40056098  0.50914355  0.97852455     0.28000
C640        C  0.40037451  0.50163766  0.52942047     0.28000
C641        C  0.47922699  0.55235687  0.94747264     0.36600
C642        C  0.43800627  0.52966480  0.94124152     0.36600
C643        C  0.45319033  0.56455277  0.57768741     0.36600
C644        C  0.41765739  0.53190230  0.57584740     0.36600
C645        C  0.02512322  0.60086000  0.00818912    -0.20900
C646        C  0.01657552  0.60164083  0.54175224    -0.20900
C647        C  0.37628901  0.49142585  0.98430644    -0.20900
C648        C  0.37775234  0.48627450  0.51547551    -0.20900
C649        C  0.47860231  0.54102272  0.91660329    -0.21900
C650        C  0.45224595  0.52731208  0.91236930    -0.21900
C651        C  0.44574822  0.55807697  0.60891833    -0.21900
C652        C  0.42294114  0.53799285  0.60792485    -0.21900
C653        C  0.50188268  0.56949910  0.96162070    -0.17300
C654        C  0.48171916  0.56659909  0.56842689    -0.17300
C655        C  0.40458307  0.50452536  0.56287218    -0.17300
C656        C  0.40982417  0.51946573  0.94778518    -0.17300
H657        H  0.04613424  0.60505573  0.99906403     0.15600
H658        H  0.03057519  0.60581494  0.56179177     0.15600
H659        H  0.36137944  0.48253734  0.96689151     0.15600
H660        H  0.36107812  0.47344556  0.52751432     0.15600
H661        H  0.49505935  0.54314833  0.89879160     0.13900
H662        H  0.44502728  0.51598181  0.89080395     0.13900
H663        H  0.45813894  0.56334870  0.63000015     0.13900
H664        H  0.41377250  0.52727300  0.62882612     0.13900
H665        H  0.45802433  0.57085747  0.00882805     0.27200
H666        H  0.43345676  0.52481819  0.00928345     0.27200
O667        O  0.10607484  0.91978601  0.86655482    -0.56800
C668        C  0.03010720  0.93196288  0.90655698     0.75800
O669        O  0.11190758  0.87916380  0.95522695    -0.58000
C670        C  0.13137123  0.92788697  0.87252308     0.75800
C671        C  0.09374268  0.97417175  0.96595368     0.78200
Cd672      Cd  0.08924020  0.92063704  0.92214346     1.37500
O673        O  0.05001125  0.94300124  0.88970739    -0.56800
O674        O  0.09959714  0.97541222  0.93665910    -0.55600
C675        C  0.09835930  0.85667133  0.94280177     0.78200
O676        O  0.08827061  0.94700592  0.97652382    -0.58000
O677        O  0.03703818  0.91148443  0.92688319    -0.56400
O678        O  0.13726776  0.93204936  0.90159940    -0.56400
O679        O  0.08067782  0.86386579  0.92137708    -0.55600
O680        O  0.04349789  0.53891412  0.94929191    -0.56800
C681        C  0.13282393  0.53235554  0.90358900     0.75800
O682        O  0.10891619  0.60408332  0.98407806    -0.58000
C683        C  0.03298209  0.56600420  0.95005210     0.75800
C684        C  0.10025434  0.51658916  0.00849795     0.78200
Cd685      Cd  0.09492658  0.55700603  0.95217846     1.37500
O686        O  0.10732328  0.53828190  0.89635069    -0.56800
O687        O  0.09690574  0.50570589  0.98070884    -0.55600
C688        C  0.11045108  0.62240376  0.96033111     0.78200
O689        O  0.10520207  0.54567288  0.01002876    -0.58000
O690        O  0.13947914  0.53723669  0.93235799    -0.56400
O691        O  0.05028523  0.58798885  0.94523463    -0.56400
O692        O  0.10813935  0.60940293  0.93332123    -0.55600
N693        N  0.21975118  0.87331055  0.77814914    -0.35600
N694        N  0.17382947  0.90408775  0.73545526    -0.56200
N695        N  0.15667604  0.93912345  0.78799522    -0.35600
N696        N  0.19774848  0.90767495  0.83029712    -0.56200
C697        C  0.22908124  0.86822709  0.74821724     0.28000
C698        C  0.24199110  0.86952301  0.79839451     0.28000
C699        C  0.14049671  0.95271876  0.76507096     0.28000
C700        C  0.14322017  0.94218036  0.81626218     0.28000
C701        C  0.19163660  0.89010661  0.71498109     0.36600
C702        C  0.15664774  0.92289659  0.71837843     0.36600
C703        C  0.22263539  0.90017816  0.84419466     0.36600
C704        C  0.18094535  0.92048574  0.85251859     0.36600
C705        C  0.25585694  0.85547094  0.74977138    -0.20900
C706        C  0.26398753  0.85600921  0.78129397    -0.20900
C707        C  0.11727563  0.96644640  0.77902661    -0.20900
C708        C  0.11862227  0.95929922  0.81119321    -0.20900
C709        C  0.18270377  0.89621921  0.68412878    -0.21900
C710        C  0.16031249  0.91654403  0.68617259    -0.21900
C711        C  0.22201803  0.90873611  0.87595823    -0.21900
C712        C  0.19535802  0.92080323  0.88151396    -0.21900
C713        C  0.22062199  0.88772022  0.72267008    -0.17300
C714        C  0.24538108  0.88497240  0.82857046    -0.17300
C715        C  0.15277847  0.93090154  0.84660212    -0.17300
C716        C  0.14480785  0.95057676  0.73163430    -0.17300
H717        H  0.26986202  0.85134230  0.72983488     0.15600
H718        H  0.28521286  0.85095938  0.78921833     0.15600
H719        H  0.10035013  0.97873835  0.76703234     0.15600
H720        H  0.10340093  0.96656413  0.82888217     0.15600
H721        H  0.19392691  0.89056356  0.66243293     0.13900
H722        H  0.15026910  0.92745628  0.66589146     0.13900
H723        H  0.23863616  0.90565907  0.89347404     0.13900
H724        H  0.18823344  0.92981784  0.90412820     0.13900
H725        H  0.20058870  0.88388055  0.78259390     0.27200
H726        H  0.17659683  0.92981797  0.78463035     0.27200
N727        N  0.24261982  0.96026109  0.67860032    -0.35600
N728        N  0.28796776  0.93272794  0.72305220    -0.56200
N729        N  0.32772774  0.98538446  0.70399548    -0.35600
N730        N  0.28608105  0.00805522  0.66014683    -0.56200
C731        C  0.22954921  0.94189124  0.70048127     0.28000
C732        C  0.23063170  0.98865785  0.68128863     0.28000
C733        C  0.34226650  0.96752781  0.72494574     0.28000
C734        C  0.34576665  0.99693161  0.68187937     0.28000
C735        C  0.26271310  0.92218920  0.73335390     0.36600
C736        C  0.29980579  0.94671857  0.74856968     0.36600
C737        C  0.26229850  0.02315125  0.65086245     0.36600
C738        C  0.30862361  0.02507154  0.65016421     0.36600
C739        C  0.21155276  0.95975330  0.71876372    -0.20900
C740        C  0.21140334  0.98877296  0.70609733    -0.20900
C741        C  0.37062036  0.96807824  0.71709643    -0.20900
C742        C  0.37286208  0.98630758  0.68952057    -0.20900
C743        C  0.25769466  0.93219521  0.76431510    -0.21900
C744        C  0.28158811  0.94706772  0.77422575    -0.21900
C745        C  0.26948021  0.04993504  0.63425146    -0.21900
C746        C  0.29879017  0.05113451  0.63362204    -0.21900
C747        C  0.24071072  0.91417472  0.71264603    -0.17300
C748        C  0.23485539  0.01422934  0.66099901    -0.17300
C749        C  0.33773021  0.01750754  0.65633227    -0.17300
C750        C  0.32869151  0.95222226  0.75063438    -0.17300
H751        H  0.20243683  0.95370607  0.74152007     0.15600
H752        H  0.20004275  0.00834961  0.71582402     0.15600
H753        H  0.38764067  0.95627803  0.72942198     0.15600
H754        H  0.39233525  0.99100038  0.67686587     0.15600
H755        H  0.23800828  0.93116766  0.77736502     0.13900
H756        H  0.28504753  0.95775886  0.79723376     0.13900
H757        H  0.25521509  0.06740409  0.62490953     0.13900
H758        H  0.31124868  0.07005879  0.62366281     0.13900
H759        H  0.25845454  0.95355391  0.66272306     0.27200
H760        H  0.30650394  0.99094155  0.70685440     0.27200
O761        O  0.14024829  0.41743118  0.64592329    -0.56800
C762        C  0.21540525  0.39256748  0.69962652     0.75800
O763        O  0.14577102  0.41161308  0.75961020    -0.58000
C764        C  0.11491522  0.42381880  0.65332384     0.75800
C765        C  0.13605369  0.33495331  0.70753260     0.78200
Cd766      Cd  0.15350433  0.39977027  0.70145237     1.37500
O767        O  0.20425132  0.41910058  0.69570207    -0.56800
O768        O  0.14132670  0.34795374  0.68099971    -0.55600
C769        C  0.15037069  0.44074463  0.75727775     0.78200
O770        O  0.13667296  0.35275375  0.73165641    -0.58000
O771        O  0.19861209  0.36967953  0.69775448    -0.56400
O772        O  0.10848428  0.41937611  0.68224308    -0.56400
O773        O  0.15240343  0.45133334  0.72914972    -0.55600
O774        O  0.18920772  0.01971588  0.63792097    -0.56800
C775        C  0.10268816  0.02784650  0.62397659     0.75800
O776        O  0.14214137  0.00709306  0.72367837    -0.58000
C777        C  0.20813328  0.03161646  0.65561527     0.75800
C778        C  0.13901823  0.10086136  0.68835848     0.78200
Cd779      Cd  0.14746556  0.03635200  0.67046654     1.37500
O780        O  0.12865679  0.03004062  0.61681660    -0.56800
O781        O  0.14948589  0.09271731  0.66193615    -0.55600
C782        C  0.14252418  0.97991722  0.71166643     0.78200
O783        O  0.13196113  0.07892350  0.70721311    -0.58000
O784        O  0.09690889  0.03084836  0.65322958    -0.56400
O785        O  0.19934578  0.05052308  0.67644423    -0.56400
O786        O  0.14392941  0.97949439  0.68162353    -0.55600
N787        N  0.24884209  0.46589238  0.85936294    -0.35600
N788        N  0.20300079  0.43911217  0.81333320    -0.56200
N789        N  0.16433394  0.49176989  0.83072382    -0.35600
N790        N  0.20608858  0.51290130  0.87604901    -0.56200
C791        C  0.26136596  0.44790707  0.83726493     0.28000
C792        C  0.26097599  0.49430948  0.85659793     0.28000
C793        C  0.14972621  0.47391232  0.80962271     0.28000
C794        C  0.14643144  0.50198080  0.85350591     0.28000
C795        C  0.22827309  0.42817634  0.80410049     0.36600
C796        C  0.19193438  0.45258723  0.78707135     0.36600
C797        C  0.22971555  0.52681041  0.88785531     0.36600
C798        C  0.18352461  0.52833853  0.88752741     0.36600
C799        C  0.27936209  0.46598499  0.81869109    -0.20900
C800        C  0.27991386  0.49500312  0.83154618    -0.20900
C801        C  0.12145992  0.47366236  0.81777728    -0.20900
C802        C  0.11935213  0.49104168  0.84577226    -0.20900
C803        C  0.23411617  0.43748847  0.77302819    -0.21900
C804        C  0.21058718  0.45203894  0.76185680    -0.21900
C805        C  0.22250479  0.55125785  0.90743000    -0.21900
C806        C  0.19323808  0.55223464  0.90739395    -0.21900
C807        C  0.24957063  0.42031008  0.82574665    -0.17300
C808        C  0.25711067  0.51891095  0.87765500    -0.17300
C809        C  0.15453334  0.52081599  0.88044847    -0.17300
C810        C  0.16322400  0.45826757  0.78421022    -0.17300
H811        H  0.28870752  0.45981092  0.79611709     0.15600
H812        H  0.29165956  0.51478260  0.82228132     0.15600
H813        H  0.10446857  0.46146308  0.80565178     0.15600
H814        H  0.10001224  0.49453305  0.85895163     0.15600
H815        H  0.25407980  0.43607245  0.76063919     0.13900
H816        H  0.20764888  0.46193911  0.73833044     0.13900
H817        H  0.23672931  0.56729172  0.91941619     0.13900
H818        H  0.18078609  0.56965980  0.91947865     0.13900
H819        H  0.23330453  0.45885189  0.87561599     0.27200
H820        H  0.18562366  0.49756618  0.82816159     0.27200
N821        N  0.26996064  0.37750601  0.76305401    -0.35600
N822        N  0.29125963  0.41576395  0.71179362    -0.56200
N823        N  0.33529123  0.44293025  0.75387236    -0.35600
N824        N  0.31571568  0.40914848  0.80658717    -0.56200
C825        C  0.24764851  0.37417576  0.74288559     0.28000
C826        C  0.26042021  0.37283795  0.79308746     0.28000
C827        C  0.34452521  0.45275086  0.72521650     0.28000
C828        C  0.34874913  0.45968022  0.77697482     0.28000
C829        C  0.26749034  0.40537321  0.69708556     0.36600
C830        C  0.30883234  0.42734229  0.68923409     0.36600
C831        C  0.29758113  0.39493446  0.82659677     0.36600
C832        C  0.33339354  0.42739010  0.82363144     0.36600
C833        C  0.22512665  0.36159410  0.76019869    -0.20900
C834        C  0.23325496  0.36074405  0.79166606    -0.20900
C835        C  0.36433024  0.47636111  0.72965867    -0.20900
C836        C  0.36661047  0.48115319  0.76219445    -0.20900
C837        C  0.26917410  0.41184149  0.66480665    -0.21900
C838        C  0.29559933  0.42501423  0.65965408    -0.21900
C839        C  0.30629859  0.40073994  0.85756740    -0.21900
C840        C  0.32951811  0.42037355  0.85577323    -0.21900
C841        C  0.24493027  0.38892872  0.71221236    -0.17300
C842        C  0.26880431  0.39284187  0.81813496    -0.17300
C843        C  0.34552889  0.45553193  0.81076313    -0.17300
C844        C  0.33649435  0.43971700  0.69535222    -0.17300
H845        H  0.20359178  0.35796788  0.75253028     0.15600
H846        H  0.21900572  0.35743772  0.81161394     0.15600
H847        H  0.37576320  0.48903455  0.71133128     0.15600
H848        H  0.38103726  0.49747559  0.77335868     0.15600
H849        H  0.25354544  0.40637646  0.64672269     0.13900
H850        H  0.30345521  0.43290430  0.63679120     0.13900
H851        H  0.29474793  0.39509111  0.87912811     0.13900
H852        H  0.33995223  0.43072356  0.87615358     0.13900
H853        H  0.28953668  0.38719709  0.75808267     0.27200
H854        H  0.32101214  0.42494218  0.75638056     0.27200
O855        O  0.30106017  0.52224138  0.90491640    -0.56800
C856        C  0.38779051  0.52367752  0.92262083     0.75800
O857        O  0.35826157  0.50997787  0.82376714    -0.58000
C858        C  0.28398360  0.53504067  0.88564166     0.75800
C859        C  0.35627685  0.60260360  0.86160488     0.78200
Cd860      Cd  0.34484351  0.53771232  0.87559222     1.37500
O861        O  0.36233792  0.52948717  0.92993049    -0.56800
O862        O  0.35503225  0.59192165  0.88972075    -0.55600
C863        C  0.34829204  0.48368863  0.83239621     0.78200
O864        O  0.35310792  0.58294880  0.83925167    -0.58000
O865        O  0.39339260  0.52397119  0.89312345    -0.56400
O866        O  0.29476945  0.55422458  0.86607743    -0.56400
O867        O  0.33793035  0.48343783  0.86011350    -0.55600
O868        O  0.28561909  0.91797898  0.84264252    -0.56800
C869        C  0.37728182  0.93064140  0.88220889     0.75800
O870        O  0.35364262  0.85221159  0.81228053    -0.58000
C871        C  0.27525718  0.89075020  0.83976594     0.75800
C872        C  0.34145733  0.93721839  0.77893709     0.78200
Cd873      Cd  0.33751318  0.90120076  0.83784267     1.37500
O874        O  0.35212556  0.92441490  0.89096067    -0.56800
O875        O  0.33896971  0.95000238  0.80592920    -0.55600
C876        C  0.35464791  0.83694209  0.83823910     0.78200
O877        O  0.34613211  0.90810077  0.77919113    -0.58000
O878        O  0.38303739  0.92362052  0.85370735    -0.56400
O879        O  0.29292916  0.86897327  0.84199295    -0.56400
O880        O  0.35052676  0.85239814  0.86350850    -0.55600
C881        C  0.37831577  0.68815933  0.86790632    -0.10900
C882        C  0.35973937  0.70190254  0.84600560     0.11700
C883        C  0.34199621  0.68274796  0.82695968    -0.02700
C884        C  0.34243895  0.65019709  0.83189422    -0.05400
C885        C  0.35969472  0.63654432  0.85538657    -0.16200
C886        C  0.37840817  0.65574798  0.87333433     0.02700
C887        C  0.35884665  0.73654714  0.84448868     0.12700
C888        C  0.32248788  0.69668022  0.80189152     0.63300
H889        H  0.32848384  0.63520298  0.81819044     0.12700
C890        C  0.39827500  0.64240545  0.89834122     0.55400
H891        H  0.39205521  0.70333341  0.88169086     0.08500
C892        C  0.34413769  0.75416800  0.86757172    -0.05300
C893        C  0.34417217  0.78683190  0.86479129    -0.06000
C894        C  0.35799811  0.80244760  0.83963868    -0.15600
C895        C  0.37315771  0.78475076  0.81682273    -0.01200
C896        C  0.37361437  0.75196410  0.82001624    -0.08800
C897        C  0.32825058  0.73860873  0.89493047     0.65500
H898        H  0.33268534  0.80050062  0.88209685     0.11000
C899        C  0.38883298  0.80009771  0.78933223     0.63900
H900        H  0.38514613  0.73792799  0.80305017     0.08300
F901        F  0.38292952  0.63291394  0.92473281    -0.19100
F902        F  0.41808773  0.66427514  0.90829472    -0.15400
F903        F  0.41276356  0.61724160  0.88598942    -0.18900
F904        F  0.33835990  0.71184389  0.77884393    -0.22200
F905        F  0.30433491  0.71779942  0.81584182    -0.23700
F906        F  0.30626037  0.67402950  0.78689443    -0.17700
F907        F  0.40566246  0.77904811  0.77321171    -0.20200
F908        F  0.40616513  0.82375968  0.80062798    -0.21300
F909        F  0.36956286  0.81225008  0.76783294    -0.18500
F910        F  0.31357446  0.76003645  0.91309974    -0.18600
F911        F  0.34709091  0.72345102  0.91481276    -0.22500
F912        F  0.30891709  0.71720681  0.88312783    -0.24100
C913        C  0.13554885  0.24905795  0.73376047    -0.10900
C914        C  0.12866847  0.23451841  0.70485357     0.11700
C915        C  0.12049549  0.25292726  0.67834438    -0.02700
C916        C  0.12182829  0.28564816  0.68101468    -0.05400
C917        C  0.13061216  0.30054453  0.70929644    -0.16200
C918        C  0.13667191  0.28186041  0.73663576     0.02700
C919        C  0.13201706  0.20008012  0.70252144     0.12700
C920        C  0.11031551  0.23809857  0.64740787     0.63300
H921        H  0.11650419  0.29995894  0.66055218     0.12700
C922        C  0.14532549  0.29599371  0.76839442     0.55400
H923        H  0.14109167  0.23429034  0.75381636     0.08500
C924        C  0.15760862  0.18677750  0.69173936    -0.05300
C925        C  0.15884592  0.15424778  0.68768837    -0.06000
C926        C  0.13620988  0.13452185  0.69620033    -0.15600
C927        C  0.11157353  0.14763880  0.70991155    -0.01200
C928        C  0.10964635  0.18047183  0.71210753    -0.08800
C929        C  0.18384736  0.20672189  0.68573651     0.65500
H930        H  0.17787501  0.14378239  0.67826704     0.11000
C931        C  0.08739163  0.12722819  0.72173598     0.63900
H932        H  0.09068139  0.19117615  0.72139159     0.08300
F933        F  0.16943492  0.31399852  0.76459473    -0.19100
F934        F  0.15119065  0.27336772  0.79110079    -0.15400
F935        F  0.12361138  0.31423108  0.77994519    -0.18900
F936        F  0.08622043  0.22057259  0.65327419    -0.22200
F937        F  0.13080972  0.21885631  0.63489455    -0.23700
F938        F  0.10385971  0.26033110  0.62449988    -0.17700
F939        F  0.06507784  0.14478190  0.73305188    -0.20200
F940        F  0.09679847  0.10848411  0.74646204    -0.21300
F941        F  0.07738817  0.10866387  0.69719001    -0.18500
F942        F  0.20623863  0.18910244  0.67473362    -0.18600
F943        F  0.19213088  0.22079451  0.71390952    -0.22500
F944        F  0.17844610  0.22963730  0.66332870    -0.24100
C945        C  0.13128550  0.77730596  0.96075261    -0.10900
C946        C  0.10696245  0.75832422  0.96194249     0.11700
C947        C  0.07991970  0.77233483  0.96100427    -0.02700
C948        C  0.07813336  0.80467298  0.95533261    -0.05400
C949        C  0.10241333  0.82354868  0.95238306    -0.16200
C950        C  0.12949586  0.80994957  0.95643520     0.02700
C951        C  0.11031478  0.72371844  0.96182287     0.12700
C952        C  0.05312316  0.75320072  0.96620022     0.63300
H953        H  0.05760255  0.81557148  0.95309166     0.12700
C954        C  0.15634198  0.82956760  0.95498400     0.55400
H955        H  0.15173865  0.76613983  0.96232848     0.08500
C956        C  0.11277952  0.70702867  0.93293341    -0.05300
C957        C  0.11434937  0.67426669  0.93406988    -0.06000
C958        C  0.11295959  0.65733202  0.96294597    -0.15600
C959        C  0.11122845  0.67437252  0.99212641    -0.01200
C960        C  0.11021151  0.70737121  0.99085397    -0.08800
C961        C  0.11323012  0.72379904  0.90087508     0.65500
H962        H  0.11590705  0.66154387  0.91189774     0.11000
C963        C  0.11015324  0.65838346  0.02454104     0.63900
H964        H  0.10861328  0.72084420  0.01257874     0.08300
F965        F  0.15771258  0.84530816  0.92613408    -0.19100
F966        F  0.18040447  0.81152203  0.95791014    -0.15400
F967        F  0.15646647  0.85090939  0.97967166    -0.18900
F968        F  0.05369580  0.74005873  0.99636925    -0.22200
F969        F  0.05107930  0.72965893  0.94384515    -0.23700
F970        F  0.02905200  0.77132777  0.96382111    -0.17700
F971        F  0.10881410  0.67966572  0.04928907    -0.20200
F972        F  0.13424823  0.64070185  0.02888246    -0.21300
F973        F  0.09243641  0.63725198  0.52009442    -0.18500
F974        F  0.11476470  0.70313715  0.87562022    -0.18600
F975        F  0.13646895  0.74348605  0.89932123    -0.22500
F976        F  0.08891273  0.74118080  0.89702129    -0.24100
C977        C  0.35824313  0.20961088  0.60285099    -0.10900
C978        C  0.38234005  0.22491711  0.59080840     0.11700
C979        C  0.40440343  0.20727767  0.57705693    -0.02700
C980        C  0.40097140  0.17478915  0.57474542    -0.05400
C981        C  0.37733880  0.15937875  0.58764386    -0.16200
C982        C  0.35553842  0.17685502  0.60203764     0.02700
C983        C  0.38518695  0.25894473  0.59658009     0.12700
C984        C  0.43203896  0.22233235  0.56639548     0.63300
H985        H  0.41767143  0.16079888  0.56452179     0.12700
C986        C  0.32973426  0.16111397  0.61647895     0.55400
H987        H  0.34203464  0.22358179  0.61402299     0.08500
C988        C  0.37301386  0.28160887  0.57626284    -0.05300
C989        C  0.37638546  0.31336825  0.58400248    -0.06000
C990        C  0.39080822  0.32303927  0.61170476    -0.15600
C991        C  0.40222438  0.29996984  0.63261667    -0.01200
C992        C  0.39908363  0.26831173  0.62448365    -0.08800
C993        C  0.35627441  0.27227297  0.54680391     0.65500
H994        H  0.36748075  0.33099364  0.56844315     0.11000
C995        C  0.41811261  0.30817293  0.66309966     0.63900
H996        H  0.40744831  0.25028709  0.63997672     0.08300
F997        F  0.31641475  0.14290783  0.59371203    -0.19100
F998        F  0.31041318  0.18267777  0.62760141    -0.15400
F999        F  0.33780223  0.14247570  0.64185172    -0.18900
F1000       F  0.44548751  0.23583113  0.59225942    -0.22200
F1001       F  0.42686034  0.24501770  0.54368186    -0.23700
F1002       F  0.45034496  0.20076023  0.55328800    -0.17700
F1003       F  0.40004869  0.32259811  0.68429314    -0.20200
F1004       F  0.44066007  0.32777457  0.65613119    -0.21300
F1005       F  0.42886758  0.28198175  0.67819677    -0.18500
F1006       F  0.34587582  0.29801038  0.53062041    -0.18600
F1007       F  0.33352798  0.25371669  0.55553922    -0.22500
F1008       F  0.37329749  0.25583052  0.52613146    -0.24100
N1009       N  0.51734049  0.08850619  0.02486589    -0.35600
N1010       N  0.56144129  0.05557274  0.98246003    -0.56200
N1011       N  0.57727893  0.02126781  0.03707719    -0.35600
N1012       N  0.53720738  0.05532756  0.07861931    -0.56200
C1013       C  0.50882313  0.09503511  0.99489788     0.28000
C1014       C  0.49582991  0.09545916  0.04504348     0.28000
C1015       C  0.59232379  0.00547264  0.01476177     0.28000
C1016       C  0.58911972  0.01573152  0.06597715     0.28000
C1017       C  0.54704678  0.07127054  0.46483143     0.36600
C1018       C  0.57980023  0.03554570  0.46843885     0.36600
C1019       C  0.51195700  0.06316832  0.09130992     0.36600
C1020       C  0.55294896  0.04140533  0.10123953     0.36600
C1021       C  0.98794143  0.11075207  0.99859856    -0.20900
C1022       C  0.97838610  0.11110570  0.02959942    -0.20900
C1023       C  0.61286394  0.98795191  0.02982047    -0.20900
C1024       C  0.61123051  0.99478258  0.06194747    -0.20900
C1025       C  0.55438259  0.06314644  0.43398142    -0.21900
C1026       C  0.57503843  0.04068429  0.43609510    -0.21900
C1027       C  0.51151428  0.05408845  0.12305519    -0.21900
C1028       C  0.53773227  0.04106985  0.12959349    -0.21900
C1029       C  0.51519966  0.07439872  0.96977195    -0.17300
C1030       C  0.48981444  0.07829257  0.07402441    -0.17300
C1031       C  0.58031484  0.02849438  0.09591769    -0.17300
C1032       C  0.59071093  0.00767511  0.48276818    -0.17300
H1033       H  0.97573295  0.11762456  0.97787844     0.15600
H1034       H  0.95826395  0.12080799  0.03616107     0.15600
H1035       H  0.62819028  0.97283136  0.01868433     0.15600
H1036       H  0.62441112  0.98456936  0.08029878     0.15600
H1037       H  0.54247544  0.06849805  0.41257383     0.13900
H1038       H  0.58252668  0.02762166  0.41590368     0.13900
H1039       H  0.49454281  0.05720495  0.13999923     0.13900
H1040       H  0.54394442  0.03098894  0.15220123     0.13900
H1041       H  0.53411252  0.07459248  0.02896605     0.27200
H1042       H  0.55920148  0.03331873  0.03315412     0.27200
N1043       N  0.99329154  0.00298760  0.43075758    -0.35600
N1044       N  0.94932657  0.03397179  0.97244499    -0.56200
N1045       N  0.90712967  0.98245970  0.45200128    -0.35600
N1046       N  0.94945225  0.95621707  0.41149091    -0.56200
C1047       C  0.00757708  0.01979251  0.95397222     0.28000
C1048       C  0.00402310  0.97406504  0.43464436     0.28000
C1049       C  0.89528506  0.99788720  0.97239371     0.28000
C1050       C  0.88945973  0.96920945  0.43033527     0.28000
C1051       C  0.97460487  0.04382695  0.98362217     0.36600
C1052       C  0.93621438  0.02103321  0.99784602     0.36600
C1053       C  0.97318365  0.94130409  0.40212406     0.36600
C1054       C  0.92697056  0.94049601  0.39959666     0.36600
C1055       C  0.52398017  0.00131618  0.47428418    -0.20900
C1056       C  0.52369895  0.97222426  0.46159393    -0.20900
C1057       C  0.86706274  0.99564600  0.96428959    -0.20900
C1058       C  0.86203374  0.97896515  0.43746602    -0.20900
C1059       C  0.97806704  0.03424560  0.01504552    -0.21900
C1060       C  0.95339571  0.02094814  0.02443220    -0.21900
C1061       C  0.96616634  0.91590938  0.38354761    -0.21900
C1062       C  0.93690042  0.91537784  0.38177413    -0.21900
C1063       C  0.99794660  0.04889163  0.96388567    -0.17300
C1064       C  0.00027846  0.94903385  0.41385361    -0.17300
C1065       C  0.89787740  0.94838609  0.40515953    -0.17300
C1066       C  0.90750149  0.01410898  0.99838905    -0.17300
H1067       H  0.52960509  0.00726382  0.99447826     0.15600
H1068       H  0.53382717  0.95190433  0.47169210     0.15600
H1069       H  0.84943956  0.00647109  0.97631656     0.15600
H1070       H  0.84271627  0.97320473  0.42493417     0.15600
H1071       H  0.99747347  0.03342376  0.02861131     0.13900
H1072       H  0.94913926  0.01070885  0.04755036     0.13900
H1073       H  0.98046310  0.89894234  0.37351063     0.13900
H1074       H  0.92454620  0.89743055  0.37004621     0.13900
H1075       H  0.97916056  0.01052667  0.41318922     0.32000
H1076       H  0.92865015  0.97856016  0.45493528     0.27200
O1077       O  0.88835815  0.42952314  0.17900671    -0.56800
C1078       C  0.96737011  0.42625000  0.13562854     0.75800
O1079       O  0.89435838  0.38080000  0.08673850    -0.58000
C1080       C  0.86244099  0.43232445  0.17162276     0.75800
C1081       C  0.90184960  0.47998080  0.08481555     0.78200
Cd1082     Cd  0.90643565  0.42355091  0.12469098     1.37500
O1083       O  0.95004798  0.43860186  0.15473255    -0.56800
O1084       O  0.90468437  0.48005331  0.11472550    -0.55600
C1085       C  0.89342946  0.36000833  0.10836769     0.78200
O1086       O  0.89913289  0.45306564  0.07249625    -0.58000
O1087       O  0.95680549  0.40760616  0.11547020    -0.56400
O1088       O  0.85685567  0.43079426  0.14214758    -0.56400
O1089       O  0.89862173  0.36905066  0.13650364    -0.55600
O1090       O  0.88335663  0.03514974  0.13813407    -0.56800
C1091       C  0.95965634  0.07231368  0.08583476     0.75800
O1092       O  0.88745260  0.05599223  0.02798188    -0.58000
C1093       C  0.85735692  0.03236359  0.13076471     0.75800
C1094       C  0.88314015  0.12672717  0.09507419     0.78200
Cd1095     Cd  0.89722088  0.06193075  0.08675549     1.37500
O1096       O  0.94980298  0.04787606  0.09929664    -0.56800
O1097       O  0.89181708  0.10973105  0.11776932    -0.55600
C1098       C  0.89331598  0.02717576  0.02686434     0.78200
O1099       O  0.87792477  0.11287096  0.06893827    -0.58000
O1100       O  0.94104976  0.09125148  0.07685205    -0.56400
O1101       O  0.85072238  0.04302013  0.10358468    -0.56400
O1102       O  0.89611276  0.01365515  0.05357014    -0.55600
N1103       N  0.50156179  0.49243415  0.10966267    -0.35600
N1104       N  0.54368418  0.44441473  0.12556891    -0.56200
N1105       N  0.58468419  0.46556531  0.07963868    -0.35600
N1106       N  0.54605382  0.51900998  0.06283447    -0.56200
C1107       C  0.48830868  0.46448516  0.10796642     0.28000
C1108       C  0.48848580  0.51087028  0.08808182     0.28000
C1109       C  0.60287080  0.45552961  0.10232203     0.28000
C1110       C  0.59894637  0.48383422  0.05860451     0.28000
C1111       C  0.52017938  0.43043285  0.13752394     0.36600
C1112       C  0.56633794  0.42841971  0.13622781     0.36600
C1113       C  0.52084754  0.53053705  0.05390352     0.36600
C1114       C  0.55650857  0.50529859  0.03653134     0.36600
C1115       C  0.97144713  0.46807274  0.08335582    -0.20900
C1116       C  0.97249060  0.49720287  0.07073052    -0.20900
C1117       C  0.62973536  0.46710375  0.09466591    -0.20900
C1118       C  0.62723411  0.48463694  0.06672934    -0.20900
C1119       C  0.52759141  0.40524338  0.15627911    -0.21900
C1120       C  0.55687280  0.40401340  0.15568274    -0.21900
C1121       C  0.51731278  0.52273279  0.52355512    -0.21900
C1122       C  0.54127161  0.50899247  0.51261086    -0.21900
C1123       C  0.49262057  0.43919926  0.12841854    -0.17300
C1124       C  0.49992416  0.53847571  0.07580034    -0.17300
C1125       C  0.58513004  0.49930072  0.03324415    -0.17300
C1126       C  0.59520907  0.43624931  0.12907775    -0.17300
H1127       H  0.95898837  0.44888946  0.07408478     0.15600
H1128       H  0.96278237  0.50394827  0.04850253     0.15600
H1129       H  0.64918223  0.46396612  0.10784421     0.15600
H1130       H  0.64396173  0.49732594  0.05464713     0.15600
H1131       H  0.51347241  0.38906543  0.16827604     0.13900
H1132       H  0.56953111  0.38630983  0.16725379     0.13900
H1133       H  0.49732698  0.52354323  0.51104880     0.13900
H1134       H  0.54447508  0.49907498  0.48923207     0.13900
H1135       H  0.51811801  0.49889728  0.12487091     0.27200
H1136       H  0.56348043  0.45933605  0.07704055     0.27200
N1137       N  0.98043365  0.58358517  0.51316455    -0.35600
N1138       N  0.95852789  0.54688728  0.46242076    -0.56200
N1139       N  0.91549580  0.51871594  0.50544047    -0.35600
N1140       N  0.93586686  0.55463784  0.05961159    -0.56200
C1141       C  0.00276284  0.58704587  0.49306588     0.28000
C1142       C  0.99163927  0.58906561  0.04319699     0.28000
C1143       C  0.90299164  0.51343232  0.47693473     0.28000
C1144       C  0.89899444  0.50755675  0.03205636     0.28000
C1145       C  0.98342353  0.55422656  0.44832228     0.36600
C1146       C  0.94144708  0.53355307  0.44053201     0.36600
C1147       C  0.95543089  0.56791115  0.07877198     0.36600
C1148       C  0.91934737  0.53593458  0.07780645     0.36600
C1149       C  0.52437084  0.59898465  0.51042918    -0.20900
C1150       C  0.51483397  0.59830460  0.04017774    -0.20900
C1151       C  0.87864924  0.49562090  0.48211250    -0.20900
C1152       C  0.87476453  0.49433186  0.01940011    -0.20900
C1153       C  0.98270005  0.54444584  0.41690320    -0.21900
C1154       C  0.95588632  0.53212144  0.41169080    -0.21900
C1155       C  0.94848944  0.56141708  0.11017928    -0.21900
C1156       C  0.92552631  0.54150735  0.10971228    -0.21900
C1157       C  0.00606776  0.57087033  0.46321073    -0.17300
C1158       C  0.98390513  0.56940789  0.06891956    -0.17300
C1159       C  0.90507687  0.50925183  0.06509747    -0.17300
C1160       C  0.91285722  0.52407860  0.44643636    -0.17300
H1161       H  0.54579609  0.60315606  0.50284631     0.15600
H1162       H  0.52956457  0.60185061  0.05967120     0.15600
H1163       H  0.86418428  0.48652696  0.46434356     0.15600
H1164       H  0.85788931  0.48269486  0.03230531     0.15600
H1165       H  0.99925114  0.54712173  0.39927409     0.13900
H1166       H  0.94845308  0.52241136  0.38940763     0.13900
H1167       H  0.96140702  0.56636139  0.13094002     0.13900
H1168       H  0.91671202  0.53047937  0.13066221     0.13900
H1169       H  0.96102421  0.57327728  0.50868510     0.27200
H1170       H  0.93491257  0.52943439  0.50859064     0.27200
O1171       O  0.60644074  0.92864889  0.36525406    -0.56800
C1172       C  0.52935103  0.93227955  0.40785772     0.75800
O1173       O  0.60966452  0.88144243  0.45384819    -0.58000
C1174       C  0.63256828  0.93098207  0.37191112     0.75800
C1175       C  0.59420188  0.97861468  0.46296530     0.78200
Cd1176     Cd  0.58948445  0.92411509  0.42038639     1.37500
O1177       O  0.54811843  0.94453610  0.39019422    -0.56800
O1178       O  0.59907273  0.97961951  0.43341082    -0.55600
C1179       C  0.59955952  0.85960797  0.43683208     0.78200
O1180       O  0.58975490  0.95141969  0.47411944    -0.58000
O1181       O  0.53789877  0.91195722  0.42754327    -0.56400
O1182       O  0.63871920  0.93017508  0.40123991    -0.56400
O1183       O  0.58453655  0.86769698  0.41325788    -0.55600
O1184       O  0.54603257  0.54008599  0.44544167    -0.56800
C1185       C  0.63572944  0.53522743  0.40214550     0.75800
O1186       O  0.61287232  0.60786226  0.47985658    -0.58000
C1187       C  0.53501147  0.56646967  0.45066635     0.75800
C1188       C  0.60169810  0.51940810  0.50839737     0.78200
Cd1189     Cd  0.59729428  0.55943429  0.45107958     1.37500
O1190       O  0.60965117  0.53861592  0.39575518    -0.56800
O1191       O  0.59935727  0.50826224  0.48059866    -0.55600
C1192       C  0.61235417  0.62553638  0.45551287     0.78200
O1193       O  0.60655090  0.54852390  0.50967171    -0.58000
O1194       O  0.64291707  0.54281449  0.43016966    -0.56400
O1195       O  0.55197601  0.58922893  0.44956964    -0.56400
O1196       O  0.60743470  0.61192583  0.42925591    -0.55600
N1197       N  0.71878826  0.87365924  0.27520053    -0.35600
N1198       N  0.67175621  0.90477612  0.23336496    -0.56200
N1199       N  0.65507461  0.93831679  0.28743592    -0.35600
N1200       N  0.69941261  0.91103994  0.32762231    -0.56200
C1201       C  0.72679868  0.86806426  0.24482647     0.28000
C1202       C  0.74182233  0.87032353  0.29437022     0.28000
C1203       C  0.64085472  0.95505926  0.26507413     0.28000
C1204       C  0.64522755  0.94598794  0.31647575     0.28000
C1205       C  0.68894027  0.89073947  0.21235042     0.36600
C1206       C  0.65442626  0.92420388  0.21726400     0.36600
C1207       C  0.72375023  0.90087194  0.34098877     0.36600
C1208       C  0.68205659  0.92057104  0.35116556     0.36600
C1209       C  0.75350572  0.85505546  0.24533327    -0.20900
C1210       C  0.76303698  0.85640026  0.27634866    -0.20900
C1211       C  0.62220702  0.97478605  0.28041336    -0.20900
C1212       C  0.62448613  0.96858264  0.31274372    -0.20900
C1213       C  0.67944075  0.89752087  0.18185813    -0.21900
C1214       C  0.65732275  0.91815320  0.18485047    -0.21900
C1215       C  0.72259754  0.90509897  0.37361464    -0.21900
C1216       C  0.69595733  0.91667445  0.38023963    -0.21900
C1217       C  0.71803249  0.88775600  0.21944453    -0.17300
C1218       C  0.74615220  0.88607109  0.32434892    -0.17300
C1219       C  0.65429598  0.93302421  0.34617006    -0.17300
C1220       C  0.64362272  0.95222611  0.23127244    -0.17300
H1221       H  0.76667084  0.85045886  0.22478463     0.15600
H1222       H  0.78454510  0.85126658  0.28304530     0.15600
H1223       H  0.60759645  0.99095807  0.26943503     0.15600
H1224       H  0.61267260  0.98000080  0.33141811     0.15600
H1225       H  0.69011512  0.89204366  0.15976386     0.13900
H1226       H  0.64703060  0.92939556  0.16493695     0.13900
H1227       H  0.73867129  0.89897993  0.39093290     0.13900
H1228       H  0.68855892  0.92239736  0.40383931     0.13900
H1229       H  0.69974933  0.88404301  0.28077416     0.27200
H1230       H  0.67109207  0.92262400  0.28365357     0.27200
N1231       N  0.74001902  0.95981749  0.17491575    -0.35600
N1232       N  0.78635406  0.93120933  0.21868592    -0.56200
N1233       N  0.82551314  0.98342502  0.19869234    -0.35600
N1234       N  0.78379736  0.00736699  0.15543266    -0.56200
C1235       C  0.72733093  0.94180024  0.19732724     0.28000
C1236       C  0.72887154  0.98852497  0.17825577     0.28000
C1237       C  0.84052246  0.96656509  0.22016027     0.28000
C1238       C  0.84351285  0.99635570  0.17723065     0.28000
C1239       C  0.76087172  0.92137114  0.22914259     0.36600
C1240       C  0.79878981  0.94419222  0.24448533     0.36600
C1241       C  0.75991616  0.02255688  0.14673471     0.36600
C1242       C  0.80619341  0.02472173  0.14570770     0.36600
C1243       C  0.71028443  0.96007669  0.21641898    -0.20900
C1244       C  0.71053980  0.98919889  0.20390860    -0.20900
C1245       C  0.86892930  0.96884003  0.21310628    -0.20900
C1246       C  0.87089056  0.98711855  0.18564493    -0.20900
C1247       C  0.75638896  0.93112622  0.26024164    -0.21900
C1248       C  0.78079358  0.94460405  0.27032282    -0.21900
C1249       C  0.76680932  0.04965589  0.13057577    -0.21900
C1250       C  0.79608540  0.05109071  0.12983313    -0.21900
C1251       C  0.73837838  0.91381116  0.20886542    -0.17300
C1252       C  0.73272609  0.01375571  0.15753820    -0.17300
C1253       C  0.83535742  0.01738380  0.15196423    -0.17300
C1254       C  0.82754711  0.95097780  0.24609837    -0.17300
H1255       H  0.70147041  0.95405880  0.23937936     0.15600
H1256       H  0.69994203  0.00913583  0.21399242     0.15600
H1257       H  0.88626410  0.95826728  0.22603387     0.15600
H1258       H  0.89055424  0.99284485  0.17390300     0.15600
H1259       H  0.73674179  0.93086414  0.27337780     0.13900
H1260       H  0.78443955  0.95497479  0.29342992     0.13900
H1261       H  0.75239618  0.06734232  0.12198384     0.13900
H1262       H  0.80825167  0.07054078  0.12053476     0.13900
H1263       H  0.75503853  0.95269716  0.15824198     0.27200
H1264       H  0.80396781  0.98753261  0.20094918     0.27200
O1265       O  0.64286701  0.41982293  0.14456889    -0.56800
C1266       C  0.71803361  0.39186534  0.20156968     0.75800
O1267       O  0.64645492  0.41235186  0.25828508    -0.58000
C1268       C  0.61728273  0.42500137  0.15202516     0.75800
C1269       C  0.63945358  0.33600987  0.20311882     0.78200
Cd1270     Cd  0.65615360  0.40096720  0.19996589     1.37500
O1271       O  0.70789001  0.41841023  0.19473749    -0.56800
O1272       O  0.64685558  0.34869695  0.17707976    -0.55600
C1273       C  0.65321882  0.44103909  0.25687521     0.78200
O1274       O  0.63704035  0.35401029  0.22693366    -0.58000
O1275       O  0.70045674  0.36965786  0.20132377    -0.56400
O1276       O  0.61097834  0.41996503  0.18087521    -0.56400
O1277       O  0.65708971  0.45187389  0.22906559    -0.55600
O1278       O  0.68661572  0.01890607  0.13615401    -0.56800
C1279       C  0.60207133  0.03050683  0.12172118     0.75800
O1280       O  0.64252573  0.00878819  0.22277160    -0.58000
C1281       C  0.70609212  0.03120525  0.15271458     0.75800
C1282       C  0.63884705  0.10178926  0.18714490     0.78200
Cd1283     Cd  0.64623454  0.03722628  0.16907544     1.37500
O1284       O  0.62817933  0.03140821  0.11505933    -0.56800
O1285       O  0.64662236  0.09319701  0.15970222    -0.55600
C1286       C  0.64114132  0.98149595  0.21113045     0.78200
O1287       O  0.63357039  0.08011375  0.20700838    -0.58000
O1288       O  0.59604422  0.03318673  0.15097276    -0.56400
O1289       O  0.69817157  0.05097710  0.17311775    -0.56400
O1290       O  0.64051709  0.98076895  0.18107353    -0.55600
N1291       N  0.75223303  0.46671579  0.36176593    -0.35600
N1292       N  0.70627040  0.43932762  0.31442365    -0.56200
N1293       N  0.66744520  0.49125266  0.33108589    -0.35600
N1294       N  0.70898830  0.51465324  0.37623837    -0.56200
C1295       C  0.76466932  0.44889987  0.33938908     0.28000
C1296       C  0.76446262  0.49512191  0.35921067     0.28000
C1297       C  0.65282231  0.47284814  0.31040207     0.28000
C1298       C  0.64948607  0.50233288  0.35343417     0.28000
C1299       C  0.73194326  0.42926660  0.30567755     0.36600
C1300       C  0.69489911  0.45134200  0.28760275     0.36600
C1301       C  0.73243611  0.52949005  0.38737459     0.36600
C1302       C  0.68631316  0.53151015  0.38519677     0.36600
C1303       C  0.78248778  0.46717602  0.32085696    -0.20900
C1304       C  0.78329024  0.49597540  0.33407120    -0.20900
C1305       C  0.62460551  0.47263739  0.31876722    -0.20900
C1306       C  0.62248796  0.49084030  0.34621914    -0.20900
C1307       C  0.73777579  0.43776790  0.27439259    -0.21900
C1308       C  0.71375449  0.45077062  0.26252148    -0.21900
C1309       C  0.72496623  0.55608856  0.40366345    -0.21900
C1310       C  0.69574304  0.55741615  0.40238739    -0.21900
C1311       C  0.75294560  0.42135583  0.32761784    -0.17300
C1312       C  0.76011043  0.52019902  0.37958847    -0.17300
C1313       C  0.65738841  0.52300601  0.37907785    -0.17300
C1314       C  0.66617441  0.45716227  0.28480408    -0.17300
H1315       H  0.79142993  0.46134500  0.29802745     0.15600
H1316       H  0.79475364  0.51589415  0.32468212     0.15600
H1317       H  0.60759927  0.46012797  0.30700341     0.15600
H1318       H  0.60310459  0.49478776  0.35915622     0.15600
H1319       H  0.75780969  0.43632377  0.26211324     0.13900
H1320       H  0.71075672  0.45989282  0.23869375     0.13900
H1321       H  0.73904029  0.57317148  0.41429576     0.13900
H1322       H  0.68307149  0.57607595  0.41203234     0.13900
H1323       H  0.73654403  0.45970486  0.37784269     0.27200
H1324       H  0.68871646  0.49713496  0.32838165     0.27200
N1325       N  0.77248769  0.37642168  0.26566846    -0.35600
N1326       N  0.79493180  0.41171671  0.21333212    -0.56200
N1327       N  0.83593207  0.44443801  0.25508132    -0.35600
N1328       N  0.81881218  0.40994335  0.30774351    -0.56200
C1329       C  0.74978077  0.37385890  0.24586026     0.28000
C1330       C  0.76304503  0.37297944  0.29590853     0.28000
C1331       C  0.84885076  0.44857348  0.22664348     0.28000
C1332       C  0.85152898  0.45938811  0.27777029     0.28000
C1333       C  0.77062138  0.40244983  0.19900407     0.36600
C1334       C  0.81232998  0.42350388  0.19075825     0.36600
C1335       C  0.80090205  0.39561706  0.32801671     0.36600
C1336       C  0.83587085  0.42895808  0.32478795     0.36600
C1337       C  0.72687846  0.36321505  0.26386429    -0.20900
C1338       C  0.73546522  0.36206214  0.29512951    -0.20900
C1339       C  0.87227820  0.46797939  0.23122029    -0.20900
C1340       C  0.87362014  0.47516877  0.26330012    -0.20900
C1341       C  0.77207741  0.40909519  0.16676763    -0.21900
C1342       C  0.79868781  0.42166707  0.16133938    -0.21900
C1343       C  0.80959170  0.40178770  0.35891712    -0.21900
C1344       C  0.83208083  0.42232604  0.35699428    -0.21900
C1345       C  0.74742323  0.38773963  0.21469818    -0.17300
C1346       C  0.77203260  0.39367935  0.32008083    -0.17300
C1347       C  0.84782917  0.45682113  0.31138906    -0.17300
C1348       C  0.84018332  0.43551740  0.19672906    -0.17300
H1349       H  0.70493505  0.36181889  0.25699839     0.15600
H1350       H  0.72129216  0.36019178  0.31533150     0.15600
H1351       H  0.88678611  0.47667354  0.21329552     0.15600
H1352       H  0.88998066  0.48885966  0.27486079     0.15600
H1353       H  0.75599539  0.40454432  0.14892730     0.13900
H1354       H  0.80620540  0.42972459  0.13841401     0.13900
H1355       H  0.79817812  0.39598295  0.38053110     0.13900
H1356       H  0.84211873  0.43309149  0.37736344     0.13900
H1357       H  0.79244881  0.38511502  0.26041627     0.27200
H1358       H  0.81678063  0.43314041  0.25847708     0.27200
O1359       O  0.80475109  0.52457269  0.40503322    -0.56800
C1360       C  0.89106518  0.52865922  0.42090101     0.75800
O1361       O  0.85561045  0.51291206  0.32052760    -0.58000
C1362       C  0.78674661  0.53718384  0.38676905     0.75800
C1363       C  0.85845510  0.60611864  0.36036331     0.78200
Cd1364     Cd  0.84730639  0.54094057  0.37405295     1.37500
O1365       O  0.86524019  0.53252717  0.42794316    -0.56800
O1366       O  0.85824704  0.59488486  0.38826594    -0.55600
C1367       C  0.85112203  0.48574299  0.33178587     0.78200
O1368       O  0.85413003  0.58686283  0.33786519    -0.58000
O1369       O  0.89700532  0.53087537  0.39152017    -0.56400
O1370       O  0.79646647  0.55689566  0.36708087    -0.56400
O1371       O  0.84648617  0.48508617  0.36138227    -0.55600
O1372       O  0.78541261  0.91894934  0.34277539    -0.56800
C1373       C  0.87625205  0.93462433  0.38268849     0.75800
O1374       O  0.85853064  0.85665248  0.31404806    -0.58000
C1375       C  0.77620372  0.89205753  0.33509045     0.75800
C1376       C  0.84105835  0.93880193  0.27554354     0.78200
Cd1377     Cd  0.83808184  0.90488253  0.33623298     1.37500
O1378       O  0.85077151  0.92852267  0.39020519    -0.56800
O1379       O  0.83707311  0.95253433  0.30183825    -0.55600
C1380       C  0.85624738  0.84087720  0.33958294     0.78200
O1381       O  0.84827639  0.91042703  0.27748671    -0.58000
O1382       O  0.88288350  0.92798566  0.35430622    -0.56400
O1383       O  0.79487661  0.87134043  0.33325022    -0.56400
O1384       O  0.84790535  0.85575172  0.36385914    -0.55600
C1385       C  0.88214627  0.69136256  0.36670636    -0.10900
C1386       C  0.86377672  0.70561638  0.34491026     0.11700
C1387       C  0.84550413  0.68687851  0.32607462    -0.02700
C1388       C  0.84511149  0.65433125  0.33121377    -0.05400
C1389       C  0.86218394  0.64018344  0.35459112    -0.16200
C1390       C  0.88133898  0.65898092  0.37249013     0.02700
C1391       C  0.86279842  0.74036076  0.34430891     0.12700
C1392       C  0.82691013  0.70110656  0.30032541     0.63300
H1393       H  0.83090759  0.63969661  0.31742932     0.12700
C1394       C  0.90097606  0.64523178  0.39755688     0.55400
H1395       H  0.89629384  0.70622478  0.38031765     0.08500
C1396       C  0.84795907  0.75720986  0.36791707    -0.05300
C1397       C  0.84740309  0.78995540  0.36590745    -0.06000
C1398       C  0.86092969  0.80646306  0.34110515    -0.15600
C1399       C  0.87686117  0.78955904  0.31826149    -0.01200
C1400       C  0.87746024  0.75665107  0.32033598    -0.08800
C1401       C  0.83196811  0.74063719  0.39460490     0.65500
H1402       H  0.83545679  0.80291115  0.38337774     0.11000
C1403       C  0.89335025  0.80589805  0.29195247     0.63900
H1404       H  0.88911885  0.74325283  0.30294576     0.08300
F1405       F  0.88541951  0.63398250  0.42306783    -0.19100
F1406       F  0.91983081  0.66726920  0.40929323    -0.15400
F1407       F  0.91649733  0.62124751  0.38440024    -0.18900
F1408       F  0.84381902  0.71233046  0.27591726    -0.22200
F1409       F  0.81118744  0.72538895  0.31255854    -0.23700
F1410       F  0.80823228  0.67940915  0.28761623    -0.17700
F1411       F  0.91150684  0.78571055  0.27656449    -0.20200
F1412       F  0.90954871  0.82987223  0.30464324    -0.21300
F1413       F  0.87479428  0.81781622  0.26951426    -0.18500
F1414       F  0.81867274  0.76146580  0.41473225    -0.18600
F1415       F  0.85036409  0.72312804  0.41291618    -0.22500
F1416       F  0.81151141  0.72117852  0.38172969    -0.24100
C1417       C  0.64794947  0.25079351  0.22743182    -0.10900
C1418       C  0.63200912  0.23573133  0.20389564     0.11700
C1419       C  0.61625111  0.25360023  0.18169210    -0.02700
C1420       C  0.61827534  0.28647901  0.18286202    -0.05400
C1421       C  0.63536147  0.30165469  0.20561176    -0.16200
C1422       C  0.65056852  0.28348176  0.22822375     0.02700
C1423       C  0.63468273  0.20129231  0.20116944     0.12700
C1424       C  0.59764976  0.23779122  0.15686113     0.63300
H1425       H  0.60695404  0.30059622  0.16562978     0.12700
C1426       C  0.67221248  0.29805260  0.25049038     0.55400
H1427       H  0.65992038  0.23646226  0.24390025     0.08500
C1428       C  0.65686874  0.18778678  0.18342056    -0.05300
C1429       C  0.65719618  0.15523870  0.17971167    -0.06000
C1430       C  0.63729946  0.13564899  0.19479649    -0.15600
C1431       C  0.61667984  0.14907972  0.21512295    -0.01200
C1432       C  0.61535392  0.18194350  0.21731133    -0.08800
C1433       C  0.68060086  0.20758610  0.16929005     0.65500
H1434       H  0.67354390  0.14467739  0.16533038     0.11000
C1435       C  0.59606052  0.12913740  0.23412491     0.63900
H1436       H  0.59926110  0.19290838  0.23173349     0.08300
F1437       F  0.69309809  0.31200895  0.23228892    -0.19100
F1438       F  0.68494945  0.27613776  0.27004591    -0.15400
F1439       F  0.65967864  0.31992820  0.26995290    -0.18900
F1440       F  0.57693208  0.22030389  0.17199875    -0.22200
F1441       F  0.61364588  0.21827838  0.13797366    -0.23700
F1442       F  0.58448675  0.25924142  0.13711721    -0.17700
F1443       F  0.57739935  0.14713603  0.25150724    -0.20200
F1444       F  0.61082070  0.11063190  0.25544188    -0.21300
F1445       F  0.58043565  0.11041833  0.21375137    -0.18500
F1446       F  0.69912505  0.18992711  0.15138074    -0.18600
F1447       F  0.69585947  0.22143289  0.19367221    -0.22500
F1448       F  0.66972387  0.23059315  0.14969753    -0.24100
C1449       C  0.63485684  0.78092861  0.45080819    -0.10900
C1450       C  0.61117294  0.76098063  0.45107367     0.11700
C1451       C  0.58367739  0.77373207  0.44811187    -0.02700
C1452       C  0.58090350  0.80619967  0.44427653    -0.05400
C1453       C  0.60454244  0.82615803  0.44368617    -0.16200
C1454       C  0.63204216  0.81347211  0.44678836     0.02700
C1455       C  0.61562160  0.72662550  0.45285463     0.12700
C1456       C  0.55733444  0.75318312  0.44907756     0.63300
H1457       H  0.56008958  0.81638233  0.44175486     0.12700
C1458       C  0.65824976  0.83402393  0.44442551     0.55400
H1459       H  0.65563835  0.77064967  0.45314870     0.08500
C1460       C  0.62175822  0.70883215  0.42541040    -0.05300
C1461       C  0.62203371  0.67602257  0.42794667    -0.06000
C1462       C  0.61606244  0.66037093  0.45685338    -0.15600
C1463       C  0.61106024  0.67861555  0.48470294    -0.01200
C1464       C  0.61136995  0.71147935  0.48209596    -0.08800
C1465       C  0.62728114  0.72455948  0.39342474     0.65500
H1466       H  0.62621441  0.66225947  0.40688468     0.11000
C1467       C  0.60376189  0.66403523  0.51673304     0.63900
H1468       H  0.60699839  0.72583306  0.50270221     0.08300
F1469       F  0.65750313  0.85126198  0.41644347    -0.19100
F1470       F  0.68283596  0.81662206  0.44437188    -0.15400
F1471       F  0.65932030  0.85408979  0.47016082    -0.18900
F1472       F  0.55398464  0.74102236  0.47943874    -0.22200
F1473       F  0.55962529  0.72892509  0.42758386    -0.23700
F1474       F  0.53318945  0.76975144  0.44136470    -0.17700
F1475       F  0.59896129  0.68631563  0.53994393    -0.20200
F1476       F  0.62577725  0.64547352  0.52711925    -0.21300
F1477       F  0.58056628  0.64233400  0.02312729    -0.18500
F1478       F  0.63096457  0.70305618  0.36924115    -0.18600
F1479       F  0.65152563  0.74268650  0.39536997    -0.22500
F1480       F  0.60472463  0.74336890  0.38515793    -0.24100
C1481       C  0.89730319  0.21204357  0.11589083    -0.10900
C1482       C  0.87631496  0.22704986  0.09807482     0.11700
C1483       C  0.85709965  0.20916191  0.07964547    -0.02700
C1484       C  0.85961871  0.17637505  0.07991027    -0.05400
C1485       C  0.88034375  0.16116361  0.09831511    -0.16200
C1486       C  0.89939236  0.17938027  0.11707185     0.02700
C1487       C  0.87627361  0.26170195  0.09870065     0.12700
C1488       C  0.83427499  0.22462020  0.05965824     0.63300
H1489       H  0.84542655  0.16229524  0.06553157     0.12700
C1490       C  0.92225833  0.16492385  0.13791016     0.55400
H1491       H  0.91203984  0.22645256  0.12922668     0.08500
C1492       C  0.86732510  0.27833560  0.12595029    -0.05300
C1493       C  0.87256613  0.31057998  0.12725913    -0.06000
C1494       C  0.88619515  0.32674773  0.10234951    -0.15600
C1495       C  0.89395521  0.31031173  0.07436125    -0.01200
C1496       C  0.88913785  0.27781587  0.07331459    -0.08800
C1497       C  0.85237381  0.26218214  0.15363029     0.65500
H1498       H  0.86635998  0.32347910  0.14826355     0.11000
C1499       C  0.90823671  0.32643280  0.04631265     0.63900
H1500       H  0.89628398  0.26440900  0.05304553     0.08300
F1501       F  0.90982412  0.14778880  0.16220216    -0.19100
F1502       F  0.93950833  0.18730693  0.15189303    -0.15400
F1503       F  0.93930713  0.14579626  0.11980924    -0.18900
F1504       F  0.84655038  0.24284841  0.03613618    -0.22200
F1505       F  0.81761568  0.24324481  0.07872747    -0.23700
F1506       F  0.81685920  0.20285417  0.04499213    -0.17700
F1507       F  0.93294971  0.34087941  0.05631870    -0.20200
F1508       F  0.89022150  0.34841607  0.03334695    -0.21300
F1509       F  0.91510014  0.30558812  0.02239762    -0.18500
F1510       F  0.84436883  0.28314038  0.17696799    -0.18600
F1511       F  0.86994844  0.24048567  0.16774657    -0.22500
F1512       F  0.82826625  0.24725634  0.14266849    -0.24100
N1513       N  0.51837694  0.09052311  0.52835241    -0.35600
N1514       N  0.56475930  0.05666403  0.48509321    -0.56200
N1515       N  0.57850406  0.02117631  0.53866316    -0.35600
N1516       N  0.53595709  0.05140044  0.57963207    -0.56200
C1517       C  0.51049097  0.09576106  0.49782377     0.28000
C1518       C  0.49529776  0.09459519  0.54729184     0.28000
C1519       C  0.59330866  0.00490894  0.51653240     0.28000
C1520       C  0.58923890  0.01449338  0.56770610     0.28000
C1521       C  0.54384255  0.06964005  0.96156062     0.36600
C1522       C  0.57719013  0.03476674  0.96627830     0.36600
C1523       C  0.51238095  0.06278649  0.59353346     0.36600
C1524       C  0.55335402  0.04091374  0.60278485     0.36600
C1525       C  0.98688241  0.11117151  0.50070563    -0.20900
C1526       C  0.97820550  0.11099055  0.53207620    -0.20900
C1527       C  0.61270304  0.98605817  0.53194475    -0.20900
C1528       C  0.61059270  0.99255867  0.56411025    -0.20900
C1529       C  0.55151796  0.06117856  0.93096196    -0.21900
C1530       C  0.57268676  0.03939663  0.93376999    -0.21900
C1531       C  0.51395293  0.05822834  0.62610333    -0.21900
C1532       C  0.54018549  0.04523597  0.63213925    -0.21900
C1533       C  0.51834958  0.07481798  0.47333544    -0.17300
C1534       C  0.49043882  0.07900878  0.57735136    -0.17300
C1535       C  0.58078257  0.02797265  0.59730266    -0.17300
C1536       C  0.58880121  0.00749057  0.98105992    -0.17300
H1537       H  0.97422789  0.11872288  0.48058688     0.15600
H1538       H  0.95826209  0.12047689  0.53962107     0.15600
H1539       H  0.62773709  0.97042118  0.52105015     0.15600
H1540       H  0.62308769  0.98184667  0.58278890     0.15600
H1541       H  0.53988352  0.06617479  0.90927701     0.13900
H1542       H  0.58097408  0.02653222  0.91384928     0.13900
H1543       H  0.49852827  0.06509892  0.64375155     0.13900
H1544       H  0.54783444  0.03898991  0.65557496     0.13900
H1545       H  0.53737916  0.08000037  0.53405163     0.27200
H1546       H  0.56137095  0.03543472  0.53463092     0.27200
N1547       N  0.99637255  0.00322538  0.92973473    -0.35600
N1548       N  0.94689750  0.03646384  0.47111307    -0.56200
N1549       N  0.91087023  0.98102922  0.95154579    -0.35600
N1550       N  0.95320804  0.95718145  0.90902565    -0.56200
C1551       C  0.00558004  0.02066166  0.45359233     0.28000
C1552       C  0.00713397  0.97428240  0.93284624     0.28000
C1553       C  0.89186921  0.00037685  0.47213758     0.28000
C1554       C  0.89333393  0.96837886  0.92939815     0.28000
C1555       C  0.97242046  0.04537348  0.48254642     0.36600
C1556       C  0.93344684  0.02362071  0.49637555     0.36600
C1557       C  0.97701342  0.94326045  0.89836009     0.36600
C1558       C  0.93083643  0.94202381  0.89627651     0.36600
C1559       C  0.52087656  0.00130576  0.97147090    -0.20900
C1560       C  0.52217259  0.97276841  0.95772126    -0.20900
C1561       C  0.86358236  0.99815073  0.46423042    -0.20900
C1562       C  0.86579672  0.97750273  0.93682763    -0.20900
C1563       C  0.97557136  0.03527594  0.51384123    -0.21900
C1564       C  0.95066513  0.02245587  0.52287599    -0.21900
C1565       C  0.97017081  0.91931725  0.87783339    -0.21900
C1566       C  0.94090047  0.91855840  0.87628338    -0.21900
C1567       C  0.99609455  0.05004701  0.46318967    -0.17300
C1568       C  0.00393999  0.95025694  0.91088232    -0.17300
C1569       C  0.90177033  0.94856214  0.90344315    -0.17300
C1570       C  0.90454241  0.01762080  0.49717638    -0.17300
H1571       H  0.53286200  0.00737223  0.49717114     0.15600
H1572       H  0.53317588  0.95279566  0.96731639     0.15600
H1573       H  0.84612410  0.00971699  0.47582921     0.15600
H1574       H  0.84658426  0.97205865  0.92393588     0.15600
H1575       H  0.99489721  0.03365743  0.52747231     0.13900
H1576       H  0.94621797  0.01167372  0.54566880     0.13900
H1577       H  0.98457831  0.90334725  0.86638664     0.13900
H1578       H  0.92869643  0.90135641  0.86328430     0.13900
H1579       H  0.98294951  0.01149945  0.91180508     0.32000
H1580       H  0.93244793  0.97721836  0.95424083     0.27200
O1581       O  0.88737740  0.43213506  0.68049817    -0.56800
C1582       C  0.96384405  0.42614112  0.63475011     0.75800
O1583       O  0.89115898  0.38281623  0.58694676    -0.58000
C1584       C  0.86158162  0.43725521  0.67416366     0.75800
C1585       C  0.89952202  0.48039041  0.58317262     0.78200
Cd1586     Cd  0.90292893  0.42503632  0.62519054     1.37500
O1587       O  0.94721851  0.43917853  0.65413825    -0.56800
O1588       O  0.90713840  0.48046383  0.61202344    -0.55600
C1589       C  0.88925197  0.36159871  0.60800783     0.78200
O1590       O  0.89178188  0.45385695  0.57284235    -0.58000
O1591       O  0.95253505  0.40742336  0.61518893    -0.56400
O1592       O  0.85493733  0.43658481  0.64492587    -0.56400
O1593       O  0.89283297  0.37013757  0.63662658    -0.55600
O1594       O  0.88419574  0.03782044  0.64076724    -0.56800
C1595       C  0.96041626  0.07085202  0.58710947     0.75800
O1596       O  0.88731741  0.05932124  0.52901691    -0.58000
C1597       C  0.85880939  0.03218118  0.63243977     0.75800
C1598       C  0.88444905  0.12748104  0.59446941     0.78200
Cd1599     Cd  0.89779237  0.06220828  0.58779379     1.37500
O1600       O  0.94999024  0.04493637  0.59643974    -0.56800
O1601       O  0.89250974  0.11101323  0.61785139    -0.55600
C1602       C  0.89122534  0.03019702  0.52640448     0.78200
O1603       O  0.87913219  0.11280783  0.56885652    -0.58000
O1604       O  0.94242143  0.09179858  0.58228927    -0.56400
O1605       O  0.85253570  0.03982157  0.60416401    -0.56400
O1606       O  0.89351538  0.01531734  0.55241323    -0.55600
N1607       N  0.50210733  0.49389884  0.61032795    -0.35600
N1608       N  0.54421017  0.44650398  0.62735333    -0.56200
N1609       N  0.58648395  0.46912857  0.58260098    -0.35600
N1610       N  0.54821869  0.52161381  0.56421554    -0.56200
C1611       C  0.48923451  0.46581191  0.60860573     0.28000
C1612       C  0.48980032  0.51158658  0.58766293     0.28000
C1613       C  0.60407755  0.45855827  0.60566664     0.28000
C1614       C  0.60146126  0.48719269  0.56187255     0.28000
C1615       C  0.52059759  0.43239754  0.63907179     0.36600
C1616       C  0.56685397  0.43067833  0.63836274     0.36600
C1617       C  0.52279634  0.53200678  0.55465970     0.36600
C1618       C  0.55974915  0.50868655  0.53807259     0.36600
C1619       C  0.96818115  0.46719367  0.58135660    -0.20900
C1620       C  0.96958711  0.49634926  0.56869371    -0.20900
C1621       C  0.63120464  0.46988881  0.59884763    -0.20900
C1622       C  0.62955079  0.48756432  0.57089330    -0.20900
C1623       C  0.52794693  0.40715733  0.65776396    -0.21900
C1624       C  0.55725661  0.40610787  0.65752634    -0.21900
C1625       C  0.51439925  0.52139779  0.02296980    -0.21900
C1626       C  0.53746527  0.50623322  0.01161773    -0.21900
C1627       C  0.49301536  0.44137274  0.63005295    -0.17300
C1628       C  0.50129847  0.53934695  0.57604360    -0.17300
C1629       C  0.58846481  0.50278812  0.53587585    -0.17300
C1630       C  0.59584574  0.43869921  0.63186110    -0.17300
H1631       H  0.95556913  0.44807705  0.57216323     0.15600
H1632       H  0.96018212  0.50317494  0.54637025     0.15600
H1633       H  0.65031008  0.46633065  0.61255207     0.15600
H1634       H  0.64672150  0.49998215  0.55932035     0.15600
H1635       H  0.51378275  0.39084662  0.66950445     0.13900
H1636       H  0.56989047  0.38846899  0.66923446     0.13900
H1637       H  0.49423307  0.52304363  0.01093155     0.13900
H1638       H  0.53978338  0.49604076  0.98822303     0.13900
H1639       H  0.51783227  0.50096429  0.62635562     0.27200
H1640       H  0.56523244  0.46327635  0.57960189     0.27200
N1641       N  0.98058172  0.58461959  0.01384866    -0.35600
N1642       N  0.95515383  0.55082784  0.96314402    -0.56200
N1643       N  0.91495694  0.51998957  0.00825314    -0.35600
N1644       N  0.93390513  0.55432658  0.55729103    -0.56200
C1645       C  0.00187359  0.58801928  0.99232028     0.28000
C1646       C  0.98973181  0.58885625  0.54312165     0.28000
C1647       C  0.90051178  0.51649199  0.98066377     0.28000
C1648       C  0.89899823  0.50582676  0.52864266     0.28000
C1649       C  0.98033035  0.55561485  0.94863253     0.36600
C1650       C  0.93828887  0.53490706  0.94296954     0.36600
C1651       C  0.95291271  0.56747730  0.57715231     0.36600
C1652       C  0.91640375  0.53628023  0.57489109     0.36600
C1653       C  0.52195538  0.59826224  0.00841021    -0.20900
C1654       C  0.51633404  0.59974595  0.54188233    -0.20900
C1655       C  0.87540095  0.50041417  0.98705770    -0.20900
C1656       C  0.87643903  0.49045135  0.51458808    -0.20900
C1657       C  0.97961721  0.54235269  0.91856331    -0.21900
C1658       C  0.95274577  0.52986311  0.91465625    -0.21900
C1659       C  0.94475451  0.56163848  0.60829112    -0.21900
C1660       C  0.92112245  0.54272231  0.60696960    -0.21900
C1661       C  0.00367565  0.57187190  0.96237928    -0.17300
C1662       C  0.98158125  0.56886978  0.56827838    -0.17300
C1663       C  0.90312396  0.50892275  0.56218330    -0.17300
C1664       C  0.90986296  0.52613199  0.94979167    -0.17300
H1665       H  0.54309255  0.60293111  0.99994650     0.15600
H1666       H  0.53055399  0.60353348  0.56180643     0.15600
H1667       H  0.85950453  0.49273789  0.97017151     0.15600
H1668       H  0.85942634  0.47810196  0.52653271     0.15600
H1669       H  0.99647323  0.54215613  0.90112418     0.13900
H1670       H  0.94533363  0.51735184  0.89386308     0.13900
H1671       H  0.95688954  0.56673846  0.62959985     0.13900
H1672       H  0.91086330  0.53261882  0.62759545     0.13900
H1673       H  0.96090726  0.57446788  0.01056838     0.27200
H1674       H  0.93534697  0.52872592  0.01040587     0.27200
O1675       O  0.60651401  0.92972500  0.86520784    -0.56800
C1676       C  0.52844539  0.93216051  0.90481821     0.75800
O1677       O  0.60612216  0.88060837  0.95579241    -0.58000
C1678       C  0.63257246  0.93113553  0.87237846     0.75800
C1679       C  0.59257019  0.97821248  0.96176410     0.78200
Cd1680     Cd  0.58835710  0.92319958  0.91980237     1.37500
O1681       O  0.54792105  0.94416336  0.88800419    -0.56800
O1682       O  0.59732992  0.97885304  0.93221139    -0.55600
C1683       C  0.59627315  0.85849135  0.93896370     0.78200
O1684       O  0.58843033  0.95114494  0.97333117    -0.58000
O1685       O  0.53619467  0.91167399  0.92474161    -0.56400
O1686       O  0.63829288  0.92767148  0.90164504    -0.56400
O1687       O  0.58307502  0.86644236  0.91394782    -0.55600
O1688       O  0.54269525  0.53875810  0.94651700    -0.56800
C1689       C  0.63377512  0.53501733  0.90373537     0.75800
O1690       O  0.60617232  0.60596389  0.98261150    -0.58000
C1691       C  0.53145587  0.56537331  0.94914810     0.75800
C1692       C  0.59775429  0.51657265  0.00605621     0.78200
Cd1693     Cd  0.59371729  0.55825953  0.95096279     1.37500
O1694       O  0.60839985  0.54061937  0.89560221    -0.56800
O1695       O  0.59395527  0.50659751  0.97798950    -0.55600
C1696       C  0.60835697  0.62382321  0.95852289     0.78200
O1697       O  0.60396593  0.54532354  0.00850157    -0.58000
O1698       O  0.63952467  0.53988798  0.93276537    -0.56400
O1699       O  0.54821654  0.58814359  0.94586560    -0.56400
O1700       O  0.60658159  0.61041810  0.93167734    -0.55600
N1701       N  0.72120682  0.87605111  0.77930768    -0.35600
N1702       N  0.67446104  0.90614023  0.73582167    -0.56200
N1703       N  0.65785027  0.94127844  0.78855958    -0.35600
N1704       N  0.70000545  0.91209746  0.83077481    -0.56200
C1705       C  0.72983518  0.87013641  0.74926301     0.28000
C1706       C  0.74397137  0.87339628  0.79902095     0.28000
C1707       C  0.64302454  0.95674610  0.76573824     0.28000
C1708       C  0.64616540  0.94745801  0.81718775     0.28000
C1709       C  0.69230055  0.89187504  0.71561410     0.36600
C1710       C  0.65776128  0.92552822  0.71877506     0.36600
C1711       C  0.72504144  0.90498692  0.84449276     0.36600
C1712       C  0.68284799  0.92398472  0.85321280     0.36600
C1713       C  0.75672973  0.85764226  0.75050762    -0.20900
C1714       C  0.76572839  0.85966637  0.78166448    -0.20900
C1715       C  0.62270780  0.97489493  0.78030756    -0.20900
C1716       C  0.62424323  0.96854348  0.81264899    -0.20900
C1717       C  0.68369449  0.89832134  0.68469600    -0.21900
C1718       C  0.66168565  0.91921080  0.68656243    -0.21900
C1719       C  0.72432049  0.91333922  0.87633742    -0.21900
C1720       C  0.69732403  0.92453910  0.88213205    -0.21900
C1721       C  0.72128365  0.88946568  0.72360104    -0.17300
C1722       C  0.74773851  0.88973578  0.82874438    -0.17300
C1723       C  0.65477747  0.93476526  0.84723524    -0.17300
C1724       C  0.64633573  0.95356379  0.73209911    -0.17300
H1725       H  0.77033596  0.85312139  0.73030916     0.15600
H1726       H  0.78728857  0.85540607  0.78885417     0.15600
H1727       H  0.60743920  0.98989908  0.76873726     0.15600
H1728       H  0.61109345  0.97893495  0.83080134     0.15600
H1729       H  0.69509036  0.89268340  0.66310790     0.13900
H1730       H  0.65228621  0.93047745  0.66611580     0.13900
H1731       H  0.74105512  0.91057489  0.89376569     0.13900
H1732       H  0.68998056  0.93340453  0.90474005     0.13900
H1733       H  0.70188920  0.88615131  0.78401340     0.27200
H1734       H  0.67575996  0.92815711  0.78511025     0.27200
N1735       N  0.74259197  0.96111593  0.67867778    -0.35600
N1736       N  0.78890016  0.93409209  0.72306592    -0.56200
N1737       N  0.82782798  0.98711228  0.70285093    -0.35600
N1738       N  0.78551681  0.00841092  0.65893377    -0.56200
C1739       C  0.73015272  0.94342162  0.70145505     0.28000
C1740       C  0.73062491  0.98950283  0.68100791     0.28000
C1741       C  0.84276909  0.96913669  0.72337576     0.28000
C1742       C  0.84529668  0.99758370  0.67964531     0.28000
C1743       C  0.76367703  0.92388327  0.73380558     0.36600
C1744       C  0.80105308  0.94831670  0.74827305     0.36600
C1745       C  0.76160993  0.02284774  0.64899286     0.36600
C1746       C  0.80782560  0.02506127  0.64782469     0.36600
C1747       C  0.71263044  0.96169180  0.71993217    -0.20900
C1748       C  0.71205476  0.99037069  0.70640506    -0.20900
C1749       C  0.87073928  0.96848215  0.71404831    -0.20900
C1750       C  0.87233170  0.98608262  0.68604816    -0.20900
C1751       C  0.75902524  0.93444389  0.76463974    -0.21900
C1752       C  0.78315503  0.94907584  0.77415569    -0.21900
C1753       C  0.76841471  0.04873388  0.63086094    -0.21900
C1754       C  0.79767330  0.05014819  0.62995625    -0.21900
C1755       C  0.74141303  0.91579758  0.71345612    -0.17300
C1756       C  0.73439290  0.01431336  0.65982842    -0.17300
C1757       C  0.83697053  0.01789811  0.65405114    -0.17300
C1758       C  0.82986350  0.95429049  0.74972361    -0.17300
H1759       H  0.70379857  0.95597222  0.74295139     0.15600
H1760       H  0.70088515  0.01027169  0.71572904     0.15600
H1761       H  0.88783713  0.95600462  0.72549706     0.15600
H1762       H  0.89129558  0.98951479  0.67207141     0.15600
H1763       H  0.73940745  0.93396833  0.77783356     0.13900
H1764       H  0.78688205  0.96015143  0.79691439     0.13900
H1765       H  0.75393468  0.06551474  0.62064734     0.13900
H1766       H  0.80983004  0.06866091  0.61882892     0.13900
H1767       H  0.75792225  0.95395053  0.66238601     0.27200
H1768       H  0.80686314  0.99344567  0.70654157     0.27200
O1769       O  0.64291736  0.42009684  0.64700099    -0.56800
C1770       C  0.71903066  0.39454062  0.70200242     0.75800
O1771       O  0.64861827  0.41441410  0.76060852    -0.58000
C1772       C  0.61767845  0.42662358  0.65475325     0.75800
C1773       C  0.63972215  0.33655352  0.70786105     0.78200
Cd1774     Cd  0.65687079  0.40181929  0.70250115     1.37500
O1775       O  0.70780334  0.42108910  0.69855477    -0.56800
O1776       O  0.64694031  0.34928552  0.68177528    -0.55600
C1777       C  0.65441739  0.44330252  0.75804796     0.78200
O1778       O  0.63857576  0.35456628  0.73182411    -0.58000
O1779       O  0.70231373  0.37166564  0.69916052    -0.56400
O1780       O  0.61155218  0.42211356  0.68375104    -0.56400
O1781       O  0.65750970  0.45342263  0.72986768    -0.55600
O1782       O  0.68852664  0.01875739  0.63737742    -0.56800
C1783       C  0.60312244  0.03056599  0.62237105     0.75800
O1784       O  0.64458295  0.00990403  0.72291528    -0.58000
C1785       C  0.70769148  0.03142598  0.65414916     0.75800
C1786       C  0.63886269  0.10241581  0.68610367     0.78200
Cd1787     Cd  0.64763576  0.03777939  0.66906612     1.37500
O1788       O  0.62905986  0.03239868  0.61492280    -0.56800
O1789       O  0.64992976  0.09398066  0.66009426    -0.55600
C1790       C  0.64327536  0.98246592  0.71158614     0.78200
O1791       O  0.63147599  0.08069457  0.70505663    -0.58000
O1792       O  0.59773624  0.03239212  0.65180143    -0.56400
O1793       O  0.69940375  0.05161876  0.67394159    -0.56400
O1794       O  0.64216844  0.98132753  0.68155100    -0.55600
N1795       N  0.75098873  0.46690450  0.86288135    -0.35600
N1796       N  0.70625066  0.44148142  0.81491909    -0.56200
N1797       N  0.66736298  0.49370729  0.83232406    -0.35600
N1798       N  0.70767482  0.51440936  0.87923964    -0.56200
C1799       C  0.76382978  0.44938889  0.84053695     0.28000
C1800       C  0.76287219  0.49552694  0.86070053     0.28000
C1801       C  0.65311214  0.47654329  0.81030902     0.28000
C1802       C  0.64879090  0.50473644  0.85404401     0.28000
C1803       C  0.73146527  0.43012459  0.80610050     0.36600
C1804       C  0.69567348  0.45509746  0.78850854     0.36600
C1805       C  0.73114903  0.52813999  0.89152615     0.36600
C1806       C  0.68502245  0.53032887  0.88976965     0.36600
C1807       C  0.78175948  0.46803035  0.82249381    -0.20900
C1808       C  0.78194132  0.49681318  0.83579125    -0.20900
C1809       C  0.62454838  0.47752644  0.81682602    -0.20900
C1810       C  0.62175995  0.49497494  0.84465979    -0.20900
C1811       C  0.73783998  0.43925011  0.77511146    -0.21900
C1812       C  0.71466441  0.45426351  0.76360084    -0.21900
C1813       C  0.72374622  0.55289658  0.91064439    -0.21900
C1814       C  0.69448498  0.55424886  0.90975103    -0.21900
C1815       C  0.75229263  0.42194470  0.82813723    -0.17300
C1816       C  0.75863754  0.51996577  0.88195454    -0.17300
C1817       C  0.65618649  0.52338310  0.88141595    -0.17300
C1818       C  0.66701302  0.46083693  0.78517292    -0.17300
H1819       H  0.79122053  0.46245646  0.79990334     0.15600
H1820       H  0.79348947  0.51686333  0.82682634     0.15600
H1821       H  0.60768278  0.46634554  0.80351977     0.15600
H1822       H  0.60190834  0.49942880  0.85645849     0.15600
H1823       H  0.75793804  0.43745920  0.76305616     0.13900
H1824       H  0.71217630  0.46424735  0.74004720     0.13900
H1825       H  0.73786507  0.56891246  0.92281604     0.13900
H1826       H  0.68190404  0.57195764  0.92122645     0.13900
H1827       H  0.73533377  0.45950188  0.87881941     0.27200
H1828       H  0.68891093  0.49859120  0.83095863     0.27200
N1829       N  0.77334901  0.37861152  0.76565482    -0.35600
N1830       N  0.79606909  0.41480414  0.71479598    -0.56200
N1831       N  0.83654011  0.44742747  0.75853106    -0.35600
N1832       N  0.81855504  0.41091469  0.80964219    -0.56200
C1833       C  0.75130535  0.37523145  0.74502399     0.28000
C1834       C  0.76325127  0.37434885  0.79548863     0.28000
C1835       C  0.84999474  0.45171666  0.73046301     0.28000
C1836       C  0.85280188  0.46023182  0.78191814     0.28000
C1837       C  0.77107765  0.40812784  0.70049425     0.36600
C1838       C  0.81195852  0.43137544  0.69406816     0.36600
C1839       C  0.80018229  0.39632612  0.82921374     0.36600
C1840       C  0.83539311  0.42931740  0.82761637     0.36600
C1841       C  0.72850906  0.36290927  0.76202452    -0.20900
C1842       C  0.73606393  0.36242888  0.79366402    -0.20900
C1843       C  0.87464011  0.46888098  0.73601706    -0.20900
C1844       C  0.87608515  0.47470241  0.76840397    -0.20900
C1845       C  0.77084073  0.42101825  0.67016499    -0.21900
C1846       C  0.79694612  0.43516535  0.66581890    -0.21900
C1847       C  0.80821333  0.40183951  0.86047999    -0.21900
C1848       C  0.83088248  0.42218100  0.85956829    -0.21900
C1849       C  0.74860801  0.39071035  0.71467643    -0.17300
C1850       C  0.77151301  0.39445471  0.82047699    -0.17300
C1851       C  0.84815695  0.45709111  0.81523487    -0.17300
C1852       C  0.84028944  0.44127461  0.69999963    -0.17300
H1853       H  0.70701445  0.35993085  0.75405082     0.15600
H1854       H  0.72142757  0.35961381  0.81332761     0.15600
H1855       H  0.88979923  0.47710160  0.71855270     0.15600
H1856       H  0.89309543  0.48667862  0.78073409     0.15600
H1857       H  0.75387800  0.41987721  0.65281408     0.13900
H1858       H  0.80353138  0.44774733  0.64466332     0.13900
H1859       H  0.79628589  0.39572613  0.88165054     0.13900
H1860       H  0.84059443  0.43268505  0.88030645     0.13900
H1861       H  0.79306594  0.38838770  0.76137949     0.27200
H1862       H  0.81665382  0.43747957  0.76123028     0.27200
O1863       O  0.80307072  0.52396747  0.90769637    -0.56800
C1864       C  0.88812887  0.53000571  0.92444057     0.75800
O1865       O  0.85896741  0.51216532  0.82594056    -0.58000
C1866       C  0.78518760  0.53680648  0.88945239     0.75800
C1867       C  0.85607343  0.60534116  0.86183497     0.78200
Cd1868     Cd  0.84544665  0.54088583  0.87720541     1.37500
O1869       O  0.86266554  0.53602050  0.93142397    -0.56800
O1870       O  0.85599159  0.59471640  0.88996147    -0.55600
C1871       C  0.85057302  0.48568156  0.83600599     0.78200
O1872       O  0.85180645  0.58561216  0.83974673    -0.58000
O1873       O  0.89398448  0.52934877  0.89502052    -0.56400
O1874       O  0.79493957  0.55672726  0.86996566    -0.56400
O1875       O  0.84122763  0.48564914  0.86417667    -0.55600
O1876       O  0.78815532  0.92248095  0.84363577    -0.56800
C1877       C  0.87975393  0.93426251  0.88208378     0.75800
O1878       O  0.85717468  0.85610388  0.81220140    -0.58000
C1879       C  0.77773038  0.89538473  0.83968898     0.75800
C1880       C  0.84328157  0.93998462  0.77805742     0.78200
Cd1881     Cd  0.84002831  0.90486911  0.83769150     1.37500
O1882       O  0.85538161  0.92569417  0.89150936    -0.56800
O1883       O  0.84124924  0.95331699  0.80483550    -0.55600
C1884       C  0.85607285  0.83993843  0.83758123     0.78200
O1885       O  0.84803429  0.91089448  0.77885055    -0.58000
O1886       O  0.88482451  0.92962305  0.85290733    -0.56400
O1887       O  0.79539296  0.87356591  0.84081731    -0.56400
O1888       O  0.85071221  0.85480377  0.86291740    -0.55600
C1889       C  0.87718248  0.69134103  0.86777271    -0.10900
C1890       C  0.86007038  0.70440913  0.84395715     0.11700
C1891       C  0.84349877  0.68462294  0.82428116    -0.02700
C1892       C  0.84385143  0.65221880  0.83010024    -0.05400
C1893       C  0.85952086  0.63927017  0.85536861    -0.16200
C1894       C  0.87668493  0.65915476  0.87456436     0.02700
C1895       C  0.85867570  0.73907935  0.84194045     0.12700
C1896       C  0.82521611  0.69770037  0.79763374     0.63300
H1897       H  0.83095742  0.63679299  0.81561487     0.12700
C1898       C  0.89441932  0.64684233  0.90215786     0.55400
H1899       H  0.88999784  0.70699816  0.88209759     0.08500
C1900       C  0.84304709  0.75653485  0.86437787    -0.05300
C1901       C  0.84340112  0.78926670  0.86210479    -0.06000
C1902       C  0.85850441  0.80520860  0.83808635    -0.15600
C1903       C  0.87408944  0.78762904  0.81549320    -0.01200
C1904       C  0.87410949  0.75473298  0.81812439    -0.08800
C1905       C  0.82577172  0.74065065  0.89047962     0.65500
H1906       H  0.83133535  0.80275416  0.87904988     0.11000
C1907       C  0.89110377  0.80327836  0.78919356     0.63900
H1908       H  0.88618854  0.74084051  0.80153229     0.08300
F1909       F  0.87701648  0.63612309  0.92637553    -0.19100
F1910       F  0.91176702  0.66977665  0.91496167    -0.15400
F1911       F  0.91146502  0.62283325  0.89171103    -0.18900
F1912       F  0.84222428  0.71163589  0.77482301    -0.22200
F1913       F  0.80676235  0.71962405  0.80964385    -0.23700
F1914       F  0.80931144  0.67462632  0.78286182    -0.17700
F1915       F  0.90736622  0.78207420  0.77256389    -0.20200
F1916       F  0.90915396  0.82539236  0.80220246    -0.21300
F1917       F  0.87303745  0.81746895  0.76766587    -0.18500
F1918       F  0.81039663  0.76188209  0.90811188    -0.18600
F1919       F  0.84345849  0.72496266  0.91126009    -0.22500
F1920       F  0.80689784  0.71963406  0.87710359    -0.24100
C1921       C  0.63954469  0.25020262  0.73231765    -0.10900
C1922       C  0.63000250  0.23630969  0.70402577     0.11700
C1923       C  0.61987409  0.25545485  0.67894754    -0.02700
C1924       C  0.62232263  0.28812270  0.68189143    -0.05400
C1925       C  0.63370755  0.30225042  0.70936716    -0.16200
C1926       C  0.64160212  0.28292479  0.73556635     0.02700
C1927       C  0.63262599  0.20178506  0.70066592     0.12700
C1928       C  0.60670668  0.24142136  0.64914998     0.63300
H1929       H  0.61584842  0.30299074  0.66227821     0.12700
C1930       C  0.65355792  0.29639066  0.76619094     0.55400
H1931       H  0.64647169  0.23498962  0.75145099     0.08500
C1932       C  0.65793597  0.18813790  0.68946127    -0.05300
C1933       C  0.65878206  0.15564966  0.68510516    -0.06000
C1934       C  0.63599247  0.13616077  0.69352217    -0.15600
C1935       C  0.61134714  0.14953935  0.70695505    -0.01200
C1936       C  0.60993484  0.18238669  0.70980706    -0.08800
C1937       C  0.68428549  0.20768359  0.68308769     0.65500
H1938       H  0.67767826  0.14500434  0.67555735     0.11000
C1939       C  0.58657835  0.12940369  0.71768727     0.63900
H1940       H  0.59113659  0.19326055  0.71930602     0.08300
F1941       F  0.67734054  0.31400035  0.75942516    -0.19100
F1942       F  0.66133928  0.27334383  0.78767096    -0.15400
F1943       F  0.63348937  0.31487534  0.78069390    -0.18900
F1944       F  0.58405294  0.22257349  0.65757564    -0.22200
F1945       F  0.62641027  0.22374772  0.63307223    -0.23700
F1946       F  0.59684737  0.26420776  0.62848428    -0.17700
F1947       F  0.56409470  0.14722369  0.72810472    -0.20200
F1948       F  0.59495149  0.11041711  0.74268973    -0.21300
F1949       F  0.57717655  0.11107685  0.69265318    -0.18500
F1950       F  0.70651338  0.18971183  0.67222941    -0.18600
F1951       F  0.69288502  0.22199832  0.71101219    -0.22500
F1952       F  0.67873429  0.23026681  0.66035635    -0.24100
C1953       C  0.62662671  0.77873210  0.96144324    -0.10900
C1954       C  0.60327741  0.75929668  0.95517982     0.11700
C1955       C  0.57700394  0.77282660  0.94673105    -0.02700
C1956       C  0.57562120  0.80542948  0.94264914    -0.05400
C1957       C  0.59926502  0.82490140  0.94755737    -0.16200
C1958       C  0.62510557  0.81147141  0.95793091     0.02700
C1959       C  0.60726778  0.72480891  0.95665383     0.12700
C1960       C  0.55054585  0.75298180  0.94200040     0.63300
H1961       H  0.55593118  0.81607748  0.93525456     0.12700
C1962       C  0.65121618  0.83132688  0.96417982     0.55400
H1963       H  0.64630949  0.76784930  0.96847820     0.08500
C1964       C  0.61561204  0.70760753  0.92957327    -0.05300
C1965       C  0.61658622  0.67484812  0.93173420    -0.06000
C1966       C  0.61110403  0.65870801  0.96045278    -0.15600
C1967       C  0.60619536  0.67649076  0.98860425    -0.01200
C1968       C  0.60357021  0.70927068  0.98587288    -0.08800
C1969       C  0.62431086  0.72387665  0.89878732     0.65500
H1970       H  0.62168624  0.66152736  0.91064423     0.11000
C1971       C  0.60412523  0.66152123  0.02143489     0.63900
H1972       H  0.59848632  0.72318407  0.00658471     0.08300
F1973       F  0.65764315  0.84894496  0.93740631    -0.19100
F1974       F  0.67457168  0.81328183  0.97150928    -0.15400
F1975       F  0.64628560  0.85093712  0.98967379    -0.18900
F1976       F  0.54456933  0.73672495  0.96974881    -0.22200
F1977       F  0.55450328  0.73195312  0.91752887    -0.23700
F1978       F  0.52721763  0.77100184  0.93444261    -0.17700
F1979       F  0.60188912  0.68359946  0.04534635    -0.20200
F1980       F  0.62825453  0.64430852  0.02739480    -0.21300
F1981       F  0.57939615  0.64632516  0.51383658    -0.18500
F1982       F  0.63087328  0.70276435  0.87502782    -0.18600
F1983       F  0.64800084  0.74215356  0.90442368    -0.22500
F1984       F  0.60277599  0.74265181  0.88761644    -0.24100
C1985       C  0.89762577  0.21344098  0.61472494    -0.10900
C1986       C  0.87875540  0.22813347  0.59385436     0.11700
C1987       C  0.86216693  0.20989792  0.57276631    -0.02700
C1988       C  0.86389246  0.17712194  0.57472995    -0.05400
C1989       C  0.88230609  0.16215216  0.59622779    -0.16200
C1990       C  0.90005838  0.18076588  0.61621490     0.02700
C1991       C  0.87752264  0.26280414  0.59483118     0.12700
C1992       C  0.84316881  0.22496640  0.54796327     0.63300
H1993       H  0.85109175  0.16285158  0.55897463     0.12700
C1994       C  0.92248015  0.16683180  0.63802235     0.55400
H1995       H  0.91068297  0.22810474  0.62985009     0.08500
C1996       C  0.86400258  0.27857362  0.62014549    -0.05300
C1997       C  0.86722010  0.31112281  0.62247060    -0.06000
C1998       C  0.88341734  0.32831951  0.60041601    -0.15600
C1999       C  0.89578821  0.31269920  0.57410988    -0.01200
C2000       C  0.89282029  0.27999188  0.57203903    -0.08800
C2001       C  0.84720080  0.26096033  0.64538422     0.65500
H2002       H  0.85784362  0.32334376  0.64237002     0.11000
C2003       C  0.91327216  0.33003621  0.54929004     0.63900
H2004       H  0.90338695  0.26732801  0.55324390     0.08300
F2005       F  0.90976502  0.14937005  0.66186365    -0.19100
F2006       F  0.93890354  0.18962672  0.65256917    -0.15400
F2007       F  0.94042353  0.14817496  0.62051246    -0.18900
F2008       F  0.85940346  0.24215660  0.52677598    -0.22200
F2009       F  0.82403788  0.24447104  0.56265112    -0.23700
F2010       F  0.82809905  0.20296662  0.53062786    -0.17700
F2011       F  0.93570999  0.34519493  0.56393429    -0.20200
F2012       F  0.89656167  0.35161222  0.53361992    -0.21300
F2013       F  0.92418773  0.31008313  0.52656662    -0.18500
F2014       F  0.83249278  0.28102180  0.66506666    -0.18600
F2015       F  0.86530866  0.24357225  0.66419664    -0.22500
F2016       F  0.82777988  0.24121307  0.63102185    -0.24100
loop_ 
_geom_bond_atom_site_label_1 
_geom_bond_atom_site_label_2 
_geom_bond_distance 
_geom_bond_site_symmetry_2 
_ccdc_geom_bond_type 
N1            C6   1.362   1_455  A
N1            C5   1.349   1_554  A
N1           H33   1.028       .  S
N2          C513   1.349       .  A
N2          C514   1.351       .  A
N3            C8   1.351       .  A
N3            C7   1.358       .  A
N3           H34   1.028       .  S
N4           C11   1.350       .  A
N4           C12   1.345       .  A
C5           C21   1.414       .  A
C5         C1021   1.380   1_455  A
C6           C22   1.450       .  A
C6         C1022   1.397       .  A
C7           C15   1.383   1_545  A
C7          C528   1.424   1_554  A
C8           C23   1.430       .  A
C8           C16   1.392   1_545  A
C9          N506   1.350       .  A
C9           C17   1.383       .  A
C9          C525   1.413       .  A
C10         N506   1.351       .  A
C10          C24   1.430       .  A
C10          C18   1.390       .  A
C11          C19   1.385       .  A
C11          C22   1.427   1_455  A
C12          C20   1.390       .  A
C12          C23   1.427       .  A
C13          C14   1.380   1_556  A
C13        C1013   1.380       .  A
C13          H25   1.082       .  S
C14        C1014   1.393       .  A
C14          H26   1.080       .  S
C15          C16   1.383       .  A
C15          H27   1.082       .  S
C16          H28   1.082       .  S
C17          C18   1.377       .  A
C17          H29   1.083       .  S
C18          H30   1.078       .  S
C19          C20   1.390       .  A
C19          H31   1.082   1_455  S
C20          H32   1.081       .  S
C21         C513   1.412       .  A
C21        C1063   1.531   1_455  S
C22        C1091   1.519       .  S
C23         C271   1.494       .  S
C24         C511   1.417       .  A
C24         C167   1.505   1_545  S
N35          C40   1.347   1_545  A
N35         C543   1.348       .  A
N35          H67   1.045       .  S
N36          C43   1.350       .  A
N36          C44   1.349       .  A
N37          C42   1.354       .  A
N37         C545   1.353       .  A
N37          H68   1.039       .  S
N38          C45   1.354       .  A
N38          C46   1.349       .  A
C39         N539   1.347       .  A
C39          C55   1.396       .  A
C39        C1559   1.384       .  A
C40          C56   1.391       .  A
C40        C1056   1.381       .  A
C41         N541   1.354       .  A
C41          C49   1.379       .  A
C41          C58   1.411   1_565  A
C42          C57   1.440       .  A
C42          C50   1.399       .  A
C43          C55   1.398       .  A
C43          C51   1.388   1_556  A
C44          C58   1.392       .  A
C44          C52   1.378   1_556  A
C45          C53   1.378       .  A
C45          C56   1.408       .  A
C46          C54   1.397       .  A
C46          C57   1.437       .  A
C47          C48   1.353   1_545  A
C47        C1551   1.384       .  A
C47         H563   1.076       .  S
C48        C1048   1.381       .  A
C48          H60   1.081       .  S
C49         C554   1.392       .  A
C49          H61   1.082   1_565  S
C50         C553   1.392       .  A
C50          H62   1.079       .  S
C51          C52   1.356       .  A
C51          H63   1.078       .  S
C52          H64   1.081       .  S
C53          C54   1.384       .  A
C53          H65   1.082       .  S
C54          H66   1.081       .  S
C55        C1029   1.532       .  S
C56        C1172   1.480       .  S
C57         C365   1.503       .  S
C58          C90   1.478   1_556  S
H59         C551   1.078       .  S
O69          C72   1.268       .  A
O69         Cd74   2.444       .  S
C70        C1123   1.481       .  S
C70          O79   1.265       .  A
C70          O75   1.265       .  A
O71          C77   1.268       .  A
O71         Cd74   2.492       .  S
C72         C340   1.489       .  S
C72          O80   1.264       .  A
C73         C151   1.510       .  S
C73          O78   1.270       .  A
C73          O76   1.260       .  A
Cd74         O81   2.444       .  S
Cd74         O80   2.454       .  S
Cd74         O79   2.517       .  S
Cd74         O75   2.494       .  S
Cd74         O78   2.559       .  S
Cd74         O76   2.458       .  S
C77         C486   1.497       .  S
C77          O81   1.266       .  A
O82          C85   1.272       .  A
O82         Cd87   2.523       .  S
C83        C1030   1.526       .  S
C83          O92   1.260       .  A
C83          O88   1.275       .  A
O84          C90   1.267       .  A
O84         Cd87   2.501       .  S
C85         C245   1.509       .  S
C85          O93   1.265       .  A
C86         C477   1.482       .  S
C86          O91   1.270       .  A
C86          O89   1.263       .  A
Cd87         O94   2.478       .  S
Cd87         O93   2.425       .  S
Cd87         O92   2.421       .  S
Cd87         O88   2.624       .  S
Cd87         O91   2.478       .  S
Cd87         O89   2.417       .  S
C90          O94   1.268       .  A
N95         C100   1.350   1_455  A
N95          C99   1.349   1_455  A
N95         H127   1.045       .  S
N96         C103   1.354       .  A
N96         C104   1.350       .  A
N97         C102   1.354       .  A
N97         C101   1.353       .  A
N97         H128   1.040       .  S
N98         C105   1.346       .  A
N98         C106   1.347       .  A
C99         C115   1.396       .  A
C99        C1115   1.383       .  A
C100        C116   1.397   1_655  A
C100       C1116   1.384       .  A
C101        C109   1.398       .  A
C101        C118   1.439       .  A
C102        C117   1.414       .  A
C102        C110   1.379       .  A
C103        C115   1.410   1_455  A
C103        C111   1.379       .  A
C104        C118   1.437       .  A
C104        C112   1.395       .  A
C105        C116   1.394       .  A
C105        C617   1.389       .  A
C106        C117   1.385       .  A
C106        C618   1.377       .  A
C107        C108   1.353       .  A
C107       C1107   1.381       .  A
C107        H119   1.080       .  S
C108       C1108   1.382       .  A
C108        H120   1.076       .  S
C109        C110   1.396       .  A
C109        H121   1.080       .  S
C110        H122   1.082       .  S
C111        C112   1.386       .  A
C111        H123   1.082       .  S
C112        H124   1.082       .  S
C113        C114   1.359       .  A
C113        C609   1.388       .  A
C113        H125   1.080   1_455  S
C114        C610   1.376       .  A
C114        H126   1.081       .  S
C115       C1078   1.481       .  S
C116       C1158   1.529   1_455  S
C117        C684   1.482       .  S
C118        C260   1.504       .  S
N129        C133   1.359       .  A
N129        C638   1.349       .  A
N129        H161   1.034       .  S
N130        C137   1.351       .  A
N130        C138   1.345       .  A
N131        C135   1.349       .  A
N131        C640   1.359       .  A
N131        H162   1.033       .  S
N132        C139   1.347       .  A
N132        C140   1.350       .  A
C133        C149   1.440       .  A
C133       C1149   1.393       .  A
C134        N633   1.350       .  A
C134        C150   1.411       .  A
C134       C1150   1.382       .  A
C135        C143   1.393       .  A
C135        C152   1.429       .  A
C136        N635   1.360       .  A
C136        C151   1.421       .  A
C136        C144   1.381       .  A
C137        C149   1.423       .  A
C137        C145   1.383       .  A
C138        C152   1.426       .  A
C138        C146   1.391       .  A
C139        C147   1.383       .  A
C139        C150   1.408       .  A
C140        C148   1.391       .  A
C140        C151   1.431       .  A
C141       C1141   1.396       .  A
C141        C646   1.374       .  A
C141        H153   1.077       .  S
C142       C1142   1.382   1_455  A
C142        C645   1.375       .  A
C142        H154   1.083       .  S
C143        C648   1.382       .  A
C143        H155   1.082       .  S
C144        C647   1.381   1_554  A
C144        H156   1.082       .  S
C145        C146   1.386       .  A
C145        H157   1.082       .  S
C146        H158   1.081       .  S
C147        C148   1.376       .  A
C147        H159   1.083       .  S
C148        H160   1.079       .  S
C149       C1187   1.506       .  S
C150       C1124   1.529       .  S
C152        C352   1.489       .  S
O163        C166   1.267       .  A
O163       Cd168   2.444       .  S
C164       C1064   1.482       .  S
C164        O173   1.265       .  A
C164        O169   1.266       .  A
O165        C171   1.268       .  A
O165       Cd168   2.486       .  S
C166        C211   1.495       .  S
C166        O174   1.264       .  A
C167        O172   1.270       .  A
C167        O170   1.259       .  A
Cd168       O175   2.463       .  S
Cd168       O174   2.492       .  S
Cd168       O173   2.511       .  S
Cd168       O169   2.490       .  S
Cd168       O172   2.542       .  S
Cd168       O170   2.456       .  S
C171        C445   1.481       .  S
C171        O175   1.265       .  A
O176        C179   1.269       .  A
O176       Cd181   2.564       .  S
C177        C305   1.497       .  S
C177        O186   1.263       .  A
C177        O182   1.269       .  A
O178        C184   1.269       .  A
O178       Cd181   2.477       .  S
C179       C1157   1.506       .  S
C179        O187   1.258       .  A
C180        C621   1.482       .  S
C180        O185   1.268       .  A
C180        O183   1.265       .  A
Cd181       O188   2.451       .  S
Cd181       O187   2.480       .  S
Cd181       O186   2.410       .  S
Cd181       O182   2.526       .  S
Cd181       O185   2.515       .  S
Cd181       O183   2.502       .  S
C184        C454   1.497       .  S
C184        O188   1.267       .  A
N189        C194   1.359       .  A
N189        C193   1.349       .  A
N189        H221   1.033       .  S
N190        C197   1.347       .  A
N190        C198   1.349       .  A
N191        C196   1.352       .  A
N191        C195   1.358       .  A
N191        H222   1.035       .  S
N192        C199   1.351       .  A
N192        C200   1.345       .  A
C193        C201   1.382       .  A
C193        C209   1.413       .  A
C194        C210   1.439       .  A
C194        C202   1.395       .  A
C195        C203   1.380       .  A
C195        C212   1.419       .  A
C196        C211   1.433       .  A
C196        C204   1.395       .  A
C197        C209   1.410       .  A
C197        C205   1.384       .  A
C198        C212   1.429       .  A
C198        C206   1.389       .  A
C199        C207   1.384       .  A
C199        C210   1.424       .  A
C200        C208   1.391       .  A
C200        C211   1.428       .  A
C201        C202   1.375       .  A
C201        H213   1.083       .  S
C202        H214   1.079       .  S
C203        C204   1.382       .  A
C203        H215   1.082       .  S
C204        H216   1.081       .  S
C205        C206   1.377       .  A
C205        H217   1.082       .  S
C206        H218   1.079       .  S
C207        C208   1.389       .  A
C207        H219   1.082       .  S
C208        H220   1.081       .  S
C209        C243   1.531       .  S
C210        C367   1.505       .  S
C212        C278   1.510       .  S
N223        C228   1.349       .  A
N223        C227   1.351       .  A
N223        H255   1.045       .  S
N224        C231   1.345       .  A
N224        C232   1.347       .  A
N225        C230   1.352       .  A
N225        C229   1.355       .  A
N225        H256   1.041       .  S
N226        C233   1.357       .  A
N226        C234   1.353       .  A
C227        C235   1.384       .  A
C227        C243   1.395       .  A
C228        C244   1.393   1_565  A
C228        C236   1.382       .  A
C229        C237   1.379       .  A
C229        C246   1.413       .  A
C230        C245   1.440   1_565  A
C230        C238   1.400       .  A
C231        C243   1.395       .  A
C231        C239   1.389       .  A
C232        C246   1.386       .  A
C232        C240   1.378       .  A
C233        C241   1.378       .  A
C233        C244   1.412       .  A
C234        C242   1.397       .  A
C234        C245   1.440       .  A
C235        C236   1.352       .  A
C235        H247   1.078       .  S
C236        H248   1.081   1_565  S
C237        C238   1.395       .  A
C237        H249   1.082       .  S
C238        H250   1.079       .  S
C239        C240   1.357       .  A
C239        H251   1.080       .  S
C240        H252   1.080       .  S
C241        C242   1.384       .  A
C241        H253   1.082       .  S
C242        H254   1.081       .  S
C244        C273   1.485       .  S
C246        C368   1.483       .  S
O257        C260   1.271       .  A
O257       Cd262   2.541       .  S
C258        C337   1.504       .  S
C258        O267   1.260       .  A
C258        O263   1.267       .  A
O259        C265   1.268       .  A
O259       Cd262   2.520       .  S
C260        O268   1.264       .  A
C261        C413   1.488       .  S
C261        O266   1.268       .  A
C261        O264   1.267       .  A
Cd262       O269   2.493       .  S
Cd262       O268   2.439       .  S
Cd262       O267   2.507       .  S
Cd262       O263   2.549       .  S
Cd262       O266   2.485       .  S
Cd262       O264   2.466       .  S
C265        C306   1.483       .  S
C265        O269   1.265       .  A
O270        C273   1.265       .  A
O270       Cd275   2.492       .  S
C271        O280   1.265       .  A
C271        O276   1.266       .  A
O272        C278   1.269   1_545  A
O272       Cd275   2.576       .  S
C273        O281   1.265       .  A
C274        C422   1.482       .  S
C274        O279   1.268       .  A
C274        O277   1.265       .  A
Cd275       O282   2.446   1_545  S
Cd275       O281   2.538       .  S
Cd275       O280   2.510       .  S
Cd275       O276   2.444       .  S
Cd275       O279   2.490       .  S
Cd275       O277   2.435       .  S
C278        O282   1.260       .  A
N283        C288   1.347       .  A
N283        C287   1.349       .  A
N283        H315   1.045       .  S
N284        C291   1.343       .  A
N284        C292   1.348       .  A
N285        C290   1.352       .  A
N285        C289   1.356       .  A
N285        H316   1.041       .  S
N286        C293   1.355       .  A
N286        C294   1.349       .  A
C287        C295   1.384       .  A
C287        C303   1.391       .  A
C288        C304   1.390       .  A
C288        C296   1.381       .  A
C289        C297   1.379       .  A
C289        C306   1.413       .  A
C290        C305   1.437       .  A
C290        C298   1.398       .  A
C291        C303   1.395       .  A
C291        C299   1.387       .  A
C292        C306   1.386       .  A
C292        C300   1.379       .  A
C293        C301   1.378       .  A
C293        C304   1.405       .  A
C294        C302   1.396       .  A
C294        C305   1.433       .  A
C295        C296   1.354       .  A
C295        H307   1.077       .  S
C296        H308   1.081       .  S
C297        C298   1.393       .  A
C297        H309   1.082       .  S
C298        H310   1.080       .  S
C299        C300   1.360       .  A
C299        H311   1.080       .  S
C300        H312   1.081       .  S
C301        C302   1.382       .  A
C301        H313   1.082       .  S
C302        H314   1.082       .  S
C303        C338   1.529       .  S
C304        C354   1.476       .  S
N317        C322   1.352       .  A
N317        C321   1.360       .  A
N317        H349   1.036       .  S
N318        C325   1.352       .  A
N318        C326   1.347       .  A
N319        C324   1.359       .  A
N319        C323   1.349       .  A
N319        H350   1.035       .  S
N320        C327   1.345       .  A
N320        C328   1.348       .  A
C321        C329   1.393       .  A
C321        C337   1.438       .  A
C322        C338   1.412       .  A
C322        C330   1.382       .  A
C323        C331   1.393       .  A
C323        C340   1.428       .  A
C324        C339   1.421       .  A
C324        C332   1.381       .  A
C325        C337   1.422       .  A
C325        C333   1.383       .  A
C326        C340   1.425       .  A
C326        C334   1.390       .  A
C327        C335   1.384       .  A
C327        C338   1.406       .  A
C328        C336   1.390       .  A
C328        C339   1.430       .  A
C329        C330   1.371       .  A
C329        H341   1.077       .  S
C330        H342   1.083       .  S
C331        C332   1.383       .  A
C331        H343   1.082       .  S
C332        H344   1.082       .  S
C333        C334   1.382       .  A
C333        H345   1.082       .  S
C334        H346   1.081       .  S
C335        C336   1.377       .  A
C335        H347   1.083       .  S
C336        H348   1.080       .  S
C339        C359   1.511       .  S
O351        C354   1.265       .  A
O351       Cd356   2.479       .  S
C352        O361   1.265       .  A
C352        O357   1.268       .  A
O353        C359   1.271       .  A
O353       Cd356   2.578       .  S
C354        O362   1.263       .  A
C355        C381   1.488       .  S
C355        O360   1.270       .  A
C355        O358   1.263       .  A
Cd356       O363   2.436       .  S
Cd356       O362   2.513       .  S
Cd356       O361   2.465       .  S
Cd356       O357   2.428       .  S
Cd356       O360   2.473       .  S
Cd356       O358   2.437       .  S
C359        O363   1.260       .  A
O364        C367   1.268       .  A
O364       Cd369   2.572       .  S
C365        O374   1.262       .  A
C365        O370   1.269       .  A
O366        C372   1.268       .  A
O366       Cd369   2.492       .  S
C367        O375   1.258       .  A
C368        O373   1.268       .  A
C368        O371   1.266       .  A
Cd369       O376   2.433       .  S
Cd369       O375   2.503       .  S
Cd369       O374   2.434       .  S
Cd369       O370   2.536       .  S
Cd369       O373   2.529       .  S
Cd369       O371   2.489       .  S
C372        C390   1.492       .  S
C372        O376   1.267       .  A
C377        C378   1.401       .  A
C377        C382   1.408       .  A
C377        H387   1.083       .  S
C378        C379   1.415       .  A
C378        C383   1.487       .  S
C379        C380   1.407       .  A
C379        C384   1.519       .  S
C380        C381   1.407       .  A
C380        H385   1.083       .  S
C381        C382   1.423       .  A
C382        C386   1.521       .  S
C383        C388   1.415       .  A
C383        C392   1.403       .  A
C384        F400   1.382       .  S
C384        F401   1.382       .  S
C384        F402   1.385       .  S
C386        F397   1.383       .  S
C386        F398   1.385       .  S
C386        F399   1.383       .  S
C388        C389   1.404       .  A
C388        C393   1.521       .  S
C389        C390   1.407       .  A
C389        H394   1.083       .  S
C390        C391   1.421       .  A
C391        C392   1.412       .  A
C391        C395   1.517       .  S
C392        H396   1.083       .  S
C393        F406   1.385       .  S
C393        F407   1.382       .  S
C393        F408   1.383       .  S
C395        F403   1.385       .  S
C395        F404   1.383       .  S
C395        F405   1.383       .  S
C409        C410   1.398       .  A
C409        C414   1.406       .  A
C409        H419   1.083       .  S
C410        C411   1.417       .  A
C410        C415   1.487       .  S
C411        C412   1.410       .  A
C411        C416   1.518       .  S
C412        C413   1.406       .  A
C412        H417   1.083       .  S
C413        C414   1.422       .  A
C414        C418   1.515       .  S
C415        C420   1.417       .  A
C415        C424   1.404       .  A
C416        F432   1.382       .  S
C416        F433   1.382       .  S
C416        F434   1.385       .  S
C418        F429   1.380       .  S
C418        F430   1.385       .  S
C418        F431   1.382       .  S
C420        C421   1.404       .  A
C420        C425   1.521       .  S
C421        C422   1.403       .  A
C421        H426   1.083       .  S
C422        C423   1.418       .  A
C423        C424   1.412       .  A
C423        C427   1.517       .  S
C424        H428   1.083       .  S
C425        F438   1.385       .  S
C425        F439   1.382       .  S
C425        F440   1.381       .  S
C427        F435   1.384       .  S
C427        F436   1.382       .  S
C427        F437   1.383       .  S
C441        C442   1.402       .  A
C441        C446   1.409       .  A
C441        H451   1.083       .  S
C442        C443   1.418       .  A
C442        C447   1.490       .  S
C443        C444   1.410       .  A
C443        C448   1.519       .  S
C444        C445   1.404       .  A
C444        H449   1.083       .  S
C445        C446   1.416       .  A
C446        C450   1.517       .  S
C447        C452   1.415       .  A
C447        C456   1.401       .  A
C448        F464   1.383       .  S
C448        F465   1.382       .  S
C448        F466   1.385       .  S
C450        F461   1.383       .  S
C450        F462   1.384       .  S
C450        F463   1.382       .  S
C452        C453   1.408       .  A
C452        C457   1.521       .  S
C453        C454   1.410       .  A
C453        H458   1.083       .  S
C454        C455   1.425       .  A
C455        C456   1.412       .  A
C455        C459   1.519       .  S
C456        H460   1.083       .  S
C457        F470   1.384       .  S
C457        F471   1.382       .  S
C457        F472   1.382       .  S
C459        F467   1.384       .  S
C459        F468   1.383       .  S
C459        F973   1.383       .  S
F469        C963   1.382       .  S
C473        C474   1.399       .  A
C473        C478   1.404       .  A
C473        H483   1.083       .  S
C474        C475   1.415       .  A
C474        C479   1.485       .  S
C475        C476   1.409       .  A
C475        C480   1.517       .  S
C476        C477   1.405       .  A
C476        H481   1.083       .  S
C477        C478   1.424       .  A
C478        C482   1.522       .  S
C479        C484   1.413       .  A
C479        C488   1.401       .  A
C480        F496   1.382       .  S
C480        F497   1.382       .  S
C480        F498   1.385       .  S
C482        F493   1.383       .  S
C482        F494   1.385       .  S
C482        F495   1.382       .  S
C484        C485   1.405       .  A
C484        C489   1.522       .  S
C485        C486   1.410       .  A
C485        H490   1.082       .  S
C486        C487   1.425       .  A
C487        C488   1.412       .  A
C487        C491   1.519       .  S
C488        H492   1.083       .  S
C489        F502   1.384       .  S
C489        F503   1.382       .  S
C489        F504   1.383       .  S
C491        F499   1.383       .  S
C491        F500   1.383       .  S
C491        F501   1.385       .  S
N505        C510   1.360   1_455  A
N505        C509   1.347       .  A
N505        H537   1.030       .  S
N507        C512   1.350       .  A
N507        C511   1.356       .  A
N507        H538   1.033       .  S
N508        C515   1.349       .  A
N508        C516   1.343       .  A
C509       C1525   1.380   1_455  A
C509        C525   1.415       .  A
C510        C526   1.447       .  A
C510       C1526   1.397       .  A
C511        C519   1.380   1_545  A
C512        C527   1.429       .  A
C512        C520   1.393   1_545  A
C513        C521   1.384       .  A
C514        C528   1.433       .  A
C514        C522   1.392       .  A
C515        C523   1.386       .  A
C515        C526   1.427   1_455  A
C516        C524   1.388       .  A
C516        C527   1.423       .  A
C517       C1517   1.384       .  A
C517        C518   1.377       .  A
C517        H529   1.083       .  S
C518       C1518   1.393       .  A
C518        H530   1.078       .  S
C519        C520   1.380       .  A
C519        H531   1.082       .  S
C520        H532   1.082       .  S
C521        C522   1.376       .  A
C521        H533   1.083       .  S
C522        H534   1.077       .  S
C523        C524   1.390       .  A
C523        H535   1.082   1_455  S
C524        H536   1.082       .  S
C525       C1567   1.535   1_455  S
C526       C1595   1.515       .  S
C527        C775   1.491       .  S
C528        C671   1.506   1_545  S
N539        C544   1.349   1_545  A
N539        H571   1.045       .  S
N540        C547   1.347       .  A
N540        C548   1.348       .  A
N541        C546   1.354       .  A
N541        H572   1.040       .  S
N542        C549   1.355       .  A
N542        C550   1.350       .  A
C543       C1055   1.385       .  A
C543        C559   1.394       .  A
C544        C560   1.393       .  A
C544       C1560   1.382       .  A
C545        C553   1.378       .  A
C545        C562   1.410   1_565  A
C546        C561   1.439       .  A
C546        C554   1.397       .  A
C547        C559   1.393       .  A
C547        C555   1.387       .  A
C548        C562   1.388       .  A
C548        C556   1.378       .  A
C549        C557   1.378       .  A
C549        C560   1.409       .  A
C550        C558   1.396       .  A
C550        C561   1.437       .  A
C551       C1047   1.384       .  A
C551        C552   1.354   1_545  A
C552       C1552   1.381       .  A
C552        H564   1.080       .  S
C553        H565   1.082   1_565  S
C554        H566   1.080       .  S
C555        C556   1.354       .  A
C555        H567   1.080       .  S
C556        H568   1.080       .  S
C557        C558   1.385       .  A
C557        H569   1.082       .  S
C558        H570   1.081       .  S
C559       C1533   1.530       .  S
C560       C1676   1.483       .  S
C561        C869   1.504       .  S
C562        C594   1.477       .  S
O573        C576   1.270       .  A
O573       Cd578   2.448       .  S
C574       C1627   1.483       .  S
C574        O583   1.263       .  A
C574        O579   1.267       .  A
O575        C581   1.272       .  A
O575       Cd578   2.472       .  S
C576        C844   1.492       .  S
C576        O584   1.265       .  A
C577        C655   1.506       .  S
C577        O582   1.271       .  A
C577        O580   1.259       .  A
Cd578       O585   2.430       .  S
Cd578       O584   2.469       .  S
Cd578       O583   2.520       .  S
Cd578       O579   2.499       .  S
Cd578       O582   2.560       .  S
Cd578       O580   2.434       .  S
C581        C990   1.491       .  S
C581        O585   1.264       .  A
O586        C589   1.272       .  A
O586       Cd591   2.547       .  S
C587       C1534   1.515       .  S
C587        O596   1.260       .  A
C587        O592   1.270       .  A
O588        C594   1.266       .  A
O588       Cd591   2.510       .  S
C589        C749   1.504       .  S
C589        O597   1.264       .  A
C590        C981   1.474       .  S
C590        O595   1.267       .  A
C590        O593   1.267       .  A
Cd591       O598   2.478       .  S
Cd591       O597   2.435       .  S
Cd591       O596   2.523       .  S
Cd591       O592   2.583       .  S
Cd591       O595   2.454       .  S
Cd591       O593   2.466       .  S
C594        O598   1.265       .  A
N599        C604   1.348   1_455  A
N599        C603   1.348   1_455  A
N599        H631   1.045       .  S
N600        C607   1.354       .  A
N600        C608   1.349       .  A
N601        C606   1.355       .  A
N601        C605   1.352       .  A
N601        H632   1.040       .  S
N602        C609   1.347       .  A
N602        C610   1.349       .  A
C603       C1619   1.382       .  A
C603        C619   1.392       .  A
C604        C620   1.393   1_655  A
C604       C1620   1.384       .  A
C605        C613   1.398       .  A
C605        C622   1.439       .  A
C606        C621   1.412       .  A
C606        C614   1.378       .  A
C607        C619   1.407   1_455  A
C607        C615   1.378       .  A
C608        C622   1.436       .  A
C608        C616   1.396       .  A
C609        C620   1.397       .  A
C610        C621   1.386       .  A
C611       C1611   1.382       .  A
C611        C612   1.356       .  A
C611        H623   1.081       .  S
C612       C1612   1.383       .  A
C612        H624   1.077       .  S
C613        C614   1.393       .  A
C613        H625   1.080       .  S
C614        H626   1.082       .  S
C615        C616   1.384       .  A
C615        H627   1.082       .  S
C616        H628   1.081       .  S
C617        C618   1.358       .  A
C617        H629   1.080   1_455  S
C618        H630   1.081   1_554  S
C619       C1582   1.478       .  S
C620       C1662   1.529   1_455  S
C622        C764   1.498       .  S
N633        C637   1.360   1_554  A
N633        H665   1.034       .  S
N634        C641   1.352       .  A
N634        C642   1.346       .  A
N635        C639   1.351   1_554  A
N635        H666   1.034       .  S
N636        C643   1.346       .  A
N636        C644   1.348       .  A
C637       C1653   1.394   1_556  A
C637        C653   1.439       .  A
C638        C654   1.408       .  A
C638       C1654   1.380       .  A
C639        C647   1.392       .  A
C639        C656   1.429       .  A
C640        C655   1.421       .  A
C640        C648   1.382       .  A
C641        C653   1.424       .  A
C641        C649   1.384       .  A
C642        C656   1.426       .  A
C642        C650   1.390       .  A
C643        C651   1.383       .  A
C643        C654   1.406       .  A
C644        C652   1.392       .  A
C644        C655   1.431       .  A
C645       C1645   1.394   1_554  A
C645        H657   1.078   1_554  S
C646       C1646   1.380   1_455  A
C646        H658   1.083       .  S
C647        H659   1.082       .  S
C648        H660   1.082       .  S
C649        C650   1.385       .  A
C649        H661   1.082       .  S
C650        H662   1.081       .  S
C651        C652   1.375       .  A
C651        H663   1.083       .  S
C652        H664   1.078       .  S
C653       C1691   1.505       .  S
C654       C1628   1.527       .  S
C656        C856   1.492       .  S
O667        C670   1.267       .  A
O667       Cd672   2.464       .  S
C668       C1568   1.480       .  S
C668        O677   1.265       .  A
C668        O673   1.266       .  A
O669        C675   1.266       .  A
O669       Cd672   2.496       .  S
C670        C715   1.491       .  S
C670        O678   1.263       .  A
C671        O676   1.269       .  A
C671        O674   1.260       .  A
Cd672       O679   2.463       .  S
Cd672       O678   2.474       .  S
Cd672       O677   2.503       .  S
Cd672       O673   2.491       .  S
Cd672       O676   2.548       .  S
Cd672       O674   2.472       .  S
C675        C949   1.487       .  S
C675        O679   1.264       .  A
O680        C683   1.266       .  A
O680       Cd685   2.549       .  S
C681        C809   1.500       .  S
C681        O690   1.263       .  A
C681        O686   1.269       .  A
O682        C688   1.267       .  A
O682       Cd685   2.508       .  S
C683       C1661   1.502       .  S
C683        O691   1.259       .  A
C684        O689   1.268       .  A
C684        O687   1.265   1_554  A
Cd685       O692   2.454       .  S
Cd685       O691   2.515       .  S
Cd685       O690   2.424       .  S
Cd685       O686   2.547       .  S
Cd685       O689   2.518   1_556  S
Cd685       O687   2.500       .  S
C688        C958   1.505       .  S
C688        O692   1.268       .  A
N693        C698   1.360       .  A
N693        C697   1.349       .  A
N693        H725   1.033       .  S
N694        C701   1.348       .  A
N694        C702   1.350       .  A
N695        C700   1.353       .  A
N695        C699   1.359       .  A
N695        H726   1.035       .  S
N696        C703   1.351       .  A
N696        C704   1.346       .  A
C697        C705   1.383       .  A
C697        C713   1.414       .  A
C698        C714   1.438       .  A
C698        C706   1.394       .  A
C699        C707   1.380       .  A
C699        C716   1.420       .  A
C700        C715   1.432       .  A
C700        C708   1.394       .  A
C701        C713   1.411       .  A
C701        C709   1.384       .  A
C702        C716   1.429       .  A
C702        C710   1.389       .  A
C703        C711   1.382       .  A
C703        C714   1.422       .  A
C704        C712   1.392       .  A
C704        C715   1.427       .  A
C705        C706   1.375       .  A
C705        H717   1.083       .  S
C706        H718   1.079       .  S
C707        C708   1.383       .  A
C707        H719   1.082       .  S
C708        H720   1.082       .  S
C709        C710   1.378       .  A
C709        H721   1.083       .  S
C710        H722   1.079       .  S
C711        C712   1.385       .  A
C711        H723   1.082       .  S
C712        H724   1.080       .  S
C713        C747   1.532       .  S
C714        C871   1.506       .  S
C716        C782   1.512       .  S
N727        C732   1.350       .  A
N727        C731   1.354       .  A
N727        H759   1.045       .  S
N728        C735   1.345       .  A
N728        C736   1.347       .  A
N729        C734   1.351       .  A
N729        C733   1.352       .  A
N729        H760   1.040       .  S
N730        C737   1.356       .  A
N730        C738   1.353       .  A
C731        C739   1.382       .  A
C731        C747   1.397       .  A
C732        C748   1.398   1_565  A
C732        C740   1.382       .  A
C733        C741   1.380       .  A
C733        C750   1.412       .  A
C734        C749   1.437   1_565  A
C734        C742   1.398       .  A
C735        C747   1.395       .  A
C735        C743   1.389       .  A
C736        C750   1.386       .  A
C736        C744   1.379       .  A
C737        C745   1.381       .  A
C737        C748   1.415       .  A
C738        C746   1.394       .  A
C738        C749   1.438       .  A
C739        C740   1.350       .  A
C739        H751   1.077       .  S
C740        H752   1.080   1_565  S
C741        C742   1.396       .  A
C741        H753   1.082       .  S
C742        H754   1.080       .  S
C743        C744   1.358       .  A
C743        H755   1.081       .  S
C744        H756   1.081       .  S
C745        C746   1.386       .  A
C745        H757   1.082       .  S
C746        H758   1.082       .  S
C748        C777   1.487       .  S
C750        C872   1.477       .  S
O761        C764   1.269       .  A
O761       Cd766   2.524       .  S
C762        C841   1.499       .  S
C762        O771   1.260       .  A
C762        O767   1.266       .  A
O763        C769   1.269       .  A
O763       Cd766   2.519       .  S
C764        O772   1.264       .  A
C765        C917   1.496       .  S
C765        O770   1.269       .  A
C765        O768   1.266       .  A
Cd766       O773   2.500       .  S
Cd766       O772   2.427       .  S
Cd766       O771   2.503       .  S
Cd766       O767   2.544       .  S
Cd766       O770   2.501       .  S
Cd766       O768   2.447       .  S
C769        C810   1.485       .  S
C769        O773   1.265       .  A
O774        C777   1.266       .  A
O774       Cd779   2.509       .  S
C775        O784   1.264       .  A
C775        O780   1.267       .  A
O776        C782   1.270   1_545  A
O776       Cd779   2.566       .  S
C777        O785   1.265       .  A
C778        C926   1.487       .  S
C778        O783   1.269       .  A
C778        O781   1.265       .  A
Cd779       O786   2.483   1_545  S
Cd779       O785   2.534       .  S
Cd779       O784   2.504       .  S
Cd779       O780   2.431       .  S
Cd779       O783   2.505       .  S
Cd779       O781   2.441       .  S
C782        O786   1.261       .  A
N787        C792   1.347       .  A
N787        C791   1.347       .  A
N787        H819   1.045       .  S
N788        C795   1.344       .  A
N788        C796   1.347       .  A
N789        C794   1.353       .  A
N789        C793   1.356       .  A
N789        H820   1.040       .  S
N790        C797   1.356       .  A
N790        C798   1.349       .  A
C791        C799   1.385       .  A
C791        C807   1.391       .  A
C792        C808   1.390       .  A
C792        C800   1.381       .  A
C793        C801   1.379       .  A
C793        C810   1.415       .  A
C794        C809   1.440       .  A
C794        C802   1.398       .  A
C795        C807   1.396       .  A
C795        C803   1.388       .  A
C796        C810   1.385       .  A
C796        C804   1.378       .  A
C797        C805   1.378       .  A
C797        C808   1.408       .  A
C798        C806   1.397       .  A
C798        C809   1.436       .  A
C799        C800   1.357       .  A
C799        H811   1.079       .  S
C800        H812   1.081       .  S
C801        C802   1.396       .  A
C801        H813   1.082       .  S
C802        H814   1.080       .  S
C803        C804   1.360       .  A
C803        H815   1.080       .  S
C804        H816   1.081       .  S
C805        C806   1.384       .  A
C805        H817   1.082       .  S
C806        H818   1.081       .  S
C807        C842   1.526       .  S
C808        C858   1.480       .  S
N821        C826   1.352       .  A
N821        C825   1.357       .  A
N821        H853   1.033       .  S
N822        C829   1.354       .  A
N822        C830   1.351       .  A
N823        C828   1.361       .  A
N823        C827   1.344       .  A
N823        H854   1.026       .  S
N824        C831   1.342       .  A
N824        C832   1.346       .  A
C825        C833   1.394       .  A
C825        C841   1.436       .  A
C826        C842   1.412       .  A
C826        C834   1.382       .  A
C827        C835   1.386       .  A
C827        C844   1.422       .  A
C828        C843   1.435       .  A
C828        C836   1.389       .  A
C829        C841   1.423       .  A
C829        C837   1.382       .  A
C830        C844   1.430       .  A
C830        C838   1.391       .  A
C831        C839   1.384       .  A
C831        C842   1.407       .  A
C832        C840   1.391       .  A
C832        C843   1.436       .  A
C833        C834   1.373       .  A
C833        H845   1.077       .  S
C834        H846   1.083       .  S
C835        C836   1.384       .  A
C835        H847   1.082       .  S
C836        H848   1.081       .  S
C837        C838   1.384       .  A
C837        H849   1.082       .  S
C838        H850   1.081       .  S
C839        C840   1.380       .  A
C839        H851   1.082       .  S
C840        H852   1.080       .  S
C843        C863   1.516       .  S
O855        C858   1.267       .  A
O855       Cd860   2.493       .  S
C856        O865   1.265       .  A
C856        O861   1.268       .  A
O857        C863   1.270       .  A
O857       Cd860   2.562       .  S
C858        O866   1.265       .  A
C859        C885   1.484       .  S
C859        O864   1.270       .  A
C859        O862   1.264       .  A
Cd860       O867   2.436       .  S
Cd860       O866   2.505       .  S
Cd860       O865   2.481       .  S
Cd860       O861   2.446       .  S
Cd860       O864   2.490       .  S
Cd860       O862   2.443       .  S
C863        O867   1.261       .  A
O868        C871   1.268       .  A
O868       Cd873   2.568       .  S
C869        O878   1.263       .  A
C869        O874   1.271       .  A
O870        C876   1.268       .  A
O870       Cd873   2.484       .  S
C871        O879   1.259       .  A
C872        O877   1.268       .  A
C872        O875   1.265       .  A
Cd873       O880   2.430       .  S
Cd873       O879   2.517       .  S
Cd873       O878   2.442       .  S
Cd873       O874   2.534       .  S
Cd873       O877   2.509       .  S
Cd873       O875   2.479       .  S
C876        C894   1.488       .  S
C876        O880   1.267       .  A
C881        C882   1.400       .  A
C881        C886   1.406       .  A
C881        H891   1.083       .  S
C882        C883   1.417       .  A
C882        C887   1.486       .  S
C883        C884   1.409       .  A
C883        C888   1.519       .  S
C884        C885   1.405       .  A
C884        H889   1.083       .  S
C885        C886   1.420       .  A
C886        C890   1.518       .  S
C887        C892   1.415       .  A
C887        C896   1.403       .  A
C888        F904   1.382       .  S
C888        F905   1.383       .  S
C888        F906   1.385       .  S
C890        F901   1.382       .  S
C890        F902   1.385       .  S
C890        F903   1.383       .  S
C892        C893   1.404       .  A
C892        C897   1.521       .  S
C893        C894   1.406       .  A
C893        H898   1.083       .  S
C894        C895   1.420       .  A
C895        C896   1.411       .  A
C895        C899   1.517       .  S
C896        H900   1.083       .  S
C897        F910   1.385       .  S
C897        F911   1.382       .  S
C897        F912   1.382       .  S
C899        F907   1.385       .  S
C899        F908   1.383       .  S
C899        F909   1.383       .  S
C913        C914   1.401       .  A
C913        C918   1.411       .  A
C913        H923   1.083       .  S
C914        C915   1.415       .  A
C914        C919   1.488       .  S
C915        C916   1.408       .  A
C915        C920   1.522       .  S
C916        C917   1.409       .  A
C916        H921   1.083       .  S
C917        C918   1.425       .  A
C918        C922   1.518       .  S
C919        C924   1.416       .  A
C919        C928   1.404       .  A
C920        F936   1.382       .  S
C920        F937   1.381       .  S
C920        F938   1.385       .  S
C922        F933   1.381       .  S
C922        F934   1.385       .  S
C922        F935   1.383       .  S
C924        C925   1.406       .  A
C924        C929   1.522       .  S
C925        C926   1.405       .  A
C925        H930   1.083       .  S
C926        C927   1.419       .  A
C927        C928   1.413       .  A
C927        C931   1.517       .  S
C928        H932   1.083       .  S
C929        F942   1.384       .  S
C929        F943   1.382       .  S
C929        F944   1.381       .  S
C931        F939   1.385       .  S
C931        F940   1.383       .  S
C931        F941   1.383       .  S
C945        C946   1.405       .  A
C945        C950   1.413       .  A
C945        H955   1.083       .  S
C946        C947   1.416       .  A
C946        C951   1.492       .  S
C947        C948   1.408       .  A
C947        C952   1.520       .  S
C948        C949   1.405       .  A
C948        H953   1.083       .  S
C949        C950   1.419       .  A
C950        C954   1.518       .  S
C951        C956   1.414       .  A
C951        C960   1.402       .  A
C952        F968   1.383       .  S
C952        F969   1.382       .  S
C952        F970   1.385       .  S
C954        F965   1.384       .  S
C954        F966   1.384       .  S
C954        F967   1.383       .  S
C956        C957   1.407       .  A
C956        C961   1.521       .  S
C957        C958   1.410       .  A
C957        H962   1.082       .  S
C958        C959   1.429       .  A
C959        C960   1.416       .  A
C959        C963   1.520   1_556  S
C960        H964   1.083   1_556  S
C961        F974   1.384       .  S
C961        F975   1.382       .  S
C961        F976   1.382       .  S
C963        F971   1.385       .  S
C963        F972   1.383       .  S
C977        C978   1.404       .  A
C977        C982   1.409       .  A
C977        H987   1.083       .  S
C978        C979   1.416       .  A
C978        C983   1.484       .  S
C979        C980   1.404       .  A
C979        C984   1.520       .  S
C980        C981   1.402       .  A
C980        H985   1.084       .  S
C981        C982   1.415       .  A
C982        C986   1.516       .  S
C983        C988   1.414       .  A
C983        C992   1.399       .  A
C984       F1000   1.382       .  S
C984       F1001   1.381       .  S
C984       F1002   1.386       .  S
C986        F997   1.383       .  S
C986        F998   1.386       .  S
C986        F999   1.382       .  S
C988        C989   1.408       .  A
C988        C993   1.518       .  S
C989        C990   1.407       .  A
C989        H994   1.083       .  S
C990        C991   1.426       .  A
C991        C992   1.406       .  A
C991        C995   1.522       .  S
C992        H996   1.083       .  S
C993       F1006   1.385       .  S
C993       F1007   1.382       .  S
C993       F1008   1.381       .  S
C995       F1003   1.383       .  S
C995       F1004   1.383       .  S
C995       F1005   1.385       .  S
N1009      C1014   1.359       .  A
N1009      C1013   1.347   1_554  A
N1009      H1041   1.009       .  S
N1010      C1521   1.350       .  A
N1010      C1522   1.350       .  A
N1011      C1016   1.354       .  A
N1011      C1015   1.361       .  A
N1011      H1042   1.014       .  S
N1012      C1019   1.352       .  A
N1012      C1020   1.344       .  A
C1013      C1029   1.412       .  A
C1014      C1030   1.445       .  A
C1015      C1023   1.381   1_545  A
C1015      C1536   1.424   1_554  A
C1016      C1031   1.434       .  A
C1016      C1024   1.393   1_545  A
C1017      N1514   1.347       .  A
C1017      C1533   1.412       .  A
C1017      C1025   1.385       .  A
C1018      N1514   1.351       .  A
C1018      C1032   1.433       .  A
C1018      C1026   1.391       .  A
C1019      C1027   1.385       .  A
C1019      C1030   1.429       .  A
C1020      C1028   1.390       .  A
C1020      C1031   1.428       .  A
C1021      C1022   1.376   1_556  A
C1021      H1033   1.083       .  S
C1022      H1034   1.077       .  S
C1023      C1024   1.381       .  A
C1023      H1035   1.082       .  S
C1024      H1036   1.082       .  S
C1025      C1026   1.378       .  A
C1025      H1037   1.083       .  S
C1026      H1038   1.078       .  S
C1027      C1028   1.388       .  A
C1027      H1039   1.081       .  S
C1028      H1040   1.081       .  S
C1029      C1521   1.413       .  A
C1031      C1279   1.493       .  S
C1032      C1519   1.425       .  A
C1032      C1175   1.509   1_545  S
N1043      C1048   1.351   1_645  A
N1043      C1551   1.350   1_655  A
N1043      H1075   1.045       .  S
N1044      C1051   1.348       .  A
N1044      C1052   1.349       .  A
N1045      C1050   1.356       .  A
N1045      C1553   1.355   1_565  A
N1045      H1076   1.039       .  S
N1046      C1053   1.354       .  A
N1046      C1054   1.350       .  A
C1047      N1547   1.347   1_455  A
C1047      C1063   1.395   1_455  A
C1048      C1064   1.394       .  A
C1049      N1549   1.357       .  A
C1049      C1057   1.378       .  A
C1049      C1066   1.414   1_565  A
C1050      C1065   1.442       .  A
C1050      C1058   1.397       .  A
C1051      C1063   1.395       .  A
C1051      C1059   1.388   1_556  A
C1052      C1066   1.387       .  A
C1052      C1060   1.377   1_556  A
C1053      C1061   1.378       .  A
C1053      C1064   1.408   1_655  A
C1054      C1062   1.396       .  A
C1054      C1065   1.437       .  A
C1055      C1056   1.357   1_545  A
C1055      H1571   1.078       .  S
C1056      H1068   1.081       .  S
C1057      C1562   1.392       .  A
C1057      H1069   1.082   1_565  S
C1058      C1561   1.394       .  A
C1058      H1070   1.080       .  S
C1059      C1060   1.353       .  A
C1059      H1071   1.079       .  S
C1060      H1072   1.081       .  S
C1061      C1062   1.385       .  A
C1061      H1073   1.082       .  S
C1062      H1074   1.081       .  S
C1065      C1373   1.507       .  S
C1066      C1098   1.483   1_556  S
H1067      C1559   1.079       .  S
O1077      C1080   1.269       .  A
O1077     Cd1082   2.448       .  S
C1078      O1087   1.264       .  A
C1078      O1083   1.266       .  A
O1079      C1085   1.269       .  A
O1079     Cd1082   2.493       .  S
C1080      C1348   1.496       .  S
C1080      O1088   1.265       .  A
C1081      C1159   1.506       .  S
C1081      O1086   1.271       .  A
C1081      O1084   1.260       .  A
Cd1082     O1089   2.411       .  S
Cd1082     O1088   2.478       .  S
Cd1082     O1087   2.511       .  S
Cd1082     O1083   2.495       .  S
Cd1082     O1086   2.547       .  S
Cd1082     O1084   2.457       .  S
C1085      C1494   1.485       .  S
C1085      O1089   1.266       .  A
O1090      C1093   1.271       .  A
O1090     Cd1095   2.522       .  S
C1091      O1100   1.256       .  A
C1091      O1096   1.273       .  A
O1092      C1098   1.268       .  A
O1092     Cd1095   2.519       .  S
C1093      C1253   1.508       .  S
C1093      O1101   1.265       .  A
C1094      C1485   1.489       .  S
C1094      O1099   1.271       .  A
C1094      O1097   1.265       .  A
Cd1095     O1102   2.497       .  S
Cd1095     O1101   2.442       .  S
Cd1095     O1100   2.451       .  S
Cd1095     O1096   2.612       .  S
Cd1095     O1099   2.482       .  S
Cd1095     O1097   2.444       .  S
C1098      O1102   1.265       .  A
N1103      C1108   1.350       .  A
N1103      C1107   1.350       .  A
N1103      H1135   1.045       .  S
N1104      C1111   1.355       .  A
N1104      C1112   1.349       .  A
N1105      C1110   1.354       .  A
N1105      C1109   1.351       .  A
N1105      H1136   1.041       .  S
N1106      C1113   1.344       .  A
N1106      C1114   1.347       .  A
C1107      C1123   1.395       .  A
C1108      C1124   1.394       .  A
C1109      C1117   1.397       .  A
C1109      C1126   1.436       .  A
C1110      C1125   1.412       .  A
C1110      C1118   1.379       .  A
C1111      C1123   1.409       .  A
C1111      C1119   1.379       .  A
C1112      C1126   1.435       .  A
C1112      C1120   1.396       .  A
C1113      C1625   1.388       .  A
C1113      C1124   1.395       .  A
C1114      C1626   1.378       .  A
C1114      C1125   1.386       .  A
C1115      C1116   1.354       .  A
C1115      H1127   1.081       .  S
C1116      H1128   1.077       .  S
C1117      C1118   1.394       .  A
C1117      H1129   1.080       .  S
C1118      H1130   1.082       .  S
C1119      C1120   1.385       .  A
C1119      H1131   1.082       .  S
C1120      H1132   1.082       .  S
C1121      C1617   1.388       .  A
C1121      C1122   1.361       .  A
C1121      H1133   1.080       .  S
C1122      C1618   1.378       .  A
C1122      H1134   1.081       .  S
C1125      C1692   1.481       .  S
C1126      C1268   1.498       .  S
N1137      C1646   1.349       .  A
N1137      C1141   1.358   1_655  A
N1137      H1169   1.033       .  S
N1138      C1145   1.352       .  A
N1138      C1146   1.347       .  A
N1139      C1648   1.361       .  A
N1139      C1143   1.351       .  A
N1139      H1170   1.032       .  S
N1140      C1147   1.348       .  A
N1140      C1148   1.350       .  A
C1141      C1157   1.442       .  A
C1142      N1641   1.349       .  A
C1142      C1158   1.413       .  A
C1143      C1151   1.393       .  A
C1143      C1160   1.433       .  A
C1144      N1643   1.357       .  A
C1144      C1159   1.416       .  A
C1144      C1152   1.380       .  A
C1145      C1157   1.426   1_655  A
C1145      C1153   1.384       .  A
C1146      C1160   1.430       .  A
C1146      C1154   1.391       .  A
C1147      C1155   1.384       .  A
C1147      C1158   1.409       .  A
C1148      C1156   1.389       .  A
C1148      C1159   1.428       .  A
C1149      C1654   1.373       .  A
C1149      H1161   1.075       .  S
C1150      C1653   1.374       .  A
C1150      H1162   1.083       .  S
C1151      C1656   1.382       .  A
C1151      H1163   1.082       .  S
C1152      C1655   1.380   1_554  A
C1152      H1164   1.082       .  S
C1153      C1154   1.387       .  A
C1153      H1165   1.082       .  S
C1154      H1166   1.081       .  S
C1155      C1156   1.376       .  A
C1155      H1167   1.083       .  S
C1156      H1168   1.079       .  S
C1160      C1360   1.497       .  S
O1171      C1174   1.269       .  A
O1171     Cd1176   2.454       .  S
C1172      O1181   1.265       .  A
C1172      O1177   1.267       .  A
O1173      C1179   1.269       .  A
O1173     Cd1176   2.493       .  S
C1174      C1219   1.493       .  S
C1174      O1182   1.263       .  A
C1175      O1180   1.270       .  A
C1175      O1178   1.261       .  A
Cd1176     O1183   2.446       .  S
Cd1176     O1182   2.474       .  S
Cd1176     O1181   2.508       .  S
Cd1176     O1177   2.488       .  S
Cd1176     O1180   2.541       .  S
Cd1176     O1178   2.480       .  S
C1179      C1453   1.481       .  S
C1179      O1183   1.264       .  A
O1184      C1187   1.267       .  A
O1184     Cd1189   2.566       .  S
C1185      C1313   1.507       .  S
C1185      O1194   1.265       .  A
C1185      O1190   1.270       .  A
O1186      C1192   1.269       .  A
O1186     Cd1189   2.509       .  S
C1187      O1195   1.259       .  A
C1188      C1629   1.488       .  S
C1188      O1193   1.268       .  A
C1188      O1191   1.265       .  A
Cd1189     O1196   2.469       .  S
Cd1189     O1195   2.501       .  S
Cd1189     O1194   2.440       .  S
Cd1189     O1190   2.557       .  S
Cd1189     O1193   2.536       .  S
Cd1189     O1191   2.516       .  S
C1192      C1462   1.503       .  S
C1192      O1196   1.268       .  A
N1197      C1202   1.360       .  A
N1197      C1201   1.351       .  A
N1197      H1229   1.034       .  S
N1198      C1205   1.345       .  A
N1198      C1206   1.350       .  A
N1199      C1204   1.346       .  A
N1199      C1203   1.358       .  A
N1199      H1230   1.028       .  S
N1200      C1207   1.352       .  A
N1200      C1208   1.350       .  A
C1201      C1209   1.383       .  A
C1201      C1217   1.418       .  A
C1202      C1218   1.442       .  A
C1202      C1210   1.395       .  A
C1203      C1211   1.385       .  A
C1203      C1220   1.429       .  A
C1204      C1219   1.427       .  A
C1204      C1212   1.390       .  A
C1205      C1217   1.412       .  A
C1205      C1213   1.384       .  A
C1206      C1220   1.435       .  A
C1206      C1214   1.391       .  A
C1207      C1215   1.381       .  A
C1207      C1218   1.423       .  A
C1208      C1216   1.393       .  A
C1208      C1219   1.434       .  A
C1209      C1210   1.376       .  A
C1209      H1221   1.083       .  S
C1210      H1222   1.078       .  S
C1211      C1212   1.384       .  A
C1211      H1223   1.082       .  S
C1212      H1224   1.082       .  S
C1213      C1214   1.379       .  A
C1213      H1225   1.082       .  S
C1214      H1226   1.079       .  S
C1215      C1216   1.385       .  A
C1215      H1227   1.082       .  S
C1216      H1228   1.079       .  S
C1217      C1251   1.533       .  S
C1218      C1375   1.510       .  S
C1220      C1286   1.514       .  S
N1231      C1236   1.349       .  A
N1231      C1235   1.352       .  A
N1231      H1263   1.045       .  S
N1232      C1239   1.347       .  A
N1232      C1240   1.350       .  A
N1233      C1238   1.354       .  A
N1233      C1237   1.354       .  A
N1233      H1264   1.039       .  S
N1234      C1241   1.355       .  A
N1234      C1242   1.352       .  A
C1235      C1243   1.385       .  A
C1235      C1251   1.395       .  A
C1236      C1252   1.395   1_565  A
C1236      C1244   1.383       .  A
C1237      C1245   1.378       .  A
C1237      C1254   1.413       .  A
C1238      C1253   1.441   1_565  A
C1238      C1246   1.399       .  A
C1239      C1251   1.397       .  A
C1239      C1247   1.387       .  A
C1240      C1254   1.389       .  A
C1240      C1248   1.378       .  A
C1241      C1249   1.379       .  A
C1241      C1252   1.412       .  A
C1242      C1250   1.395       .  A
C1242      C1253   1.439       .  A
C1243      C1244   1.352       .  A
C1243      H1255   1.079       .  S
C1244      H1256   1.081   1_565  S
C1245      C1246   1.393       .  A
C1245      H1257   1.082       .  S
C1246      H1258   1.079       .  S
C1247      C1248   1.354       .  A
C1247      H1259   1.080       .  S
C1248      H1260   1.080       .  S
C1249      C1250   1.385       .  A
C1249      H1261   1.082       .  S
C1250      H1262   1.081       .  S
C1252      C1281   1.481       .  S
C1254      C1376   1.483       .  S
O1265      C1268   1.270       .  A
O1265     Cd1270   2.535       .  S
C1266      C1345   1.504       .  S
C1266      O1275   1.259       .  A
C1266      O1271   1.268       .  A
O1267      C1273   1.269       .  A
O1267     Cd1270   2.537       .  S
C1268      O1276   1.263       .  A
C1269      C1421   1.487       .  S
C1269      O1274   1.269       .  A
C1269      O1272   1.266       .  A
Cd1270     O1277   2.502       .  S
Cd1270     O1276   2.423       .  S
Cd1270     O1275   2.494       .  S
Cd1270     O1271   2.561       .  S
Cd1270     O1274   2.471       .  S
Cd1270     O1272   2.475       .  S
C1273      C1314   1.490       .  S
C1273      O1277   1.266       .  A
O1278      C1281   1.265       .  A
O1278     Cd1283   2.490       .  S
C1279      O1288   1.265       .  A
C1279      O1284   1.266       .  A
O1280      C1286   1.270   1_545  A
O1280     Cd1283   2.561       .  S
C1281      O1289   1.265       .  A
C1282      C1430   1.489       .  S
C1282      O1287   1.269       .  A
C1282      O1285   1.265       .  A
Cd1283     O1290   2.482   1_545  S
Cd1283     O1289   2.526       .  S
Cd1283     O1288   2.494       .  S
Cd1283     O1284   2.431       .  S
Cd1283     O1287   2.510       .  S
Cd1283     O1285   2.428       .  S
C1286      O1290   1.260       .  A
N1291      C1296   1.348       .  A
N1291      C1295   1.349       .  A
N1291      H1323   1.045       .  S
N1292      C1299   1.342       .  A
N1292      C1300   1.347       .  A
N1293      C1298   1.354       .  A
N1293      C1297   1.359       .  A
N1293      H1324   1.041       .  S
N1294      C1301   1.357       .  A
N1294      C1302   1.351       .  A
C1295      C1303   1.384       .  A
C1295      C1311   1.392       .  A
C1296      C1312   1.391       .  A
C1296      C1304   1.381       .  A
C1297      C1305   1.379       .  A
C1297      C1314   1.419       .  A
C1298      C1313   1.442       .  A
C1298      C1306   1.397       .  A
C1299      C1311   1.394       .  A
C1299      C1307   1.387       .  A
C1300      C1314   1.386       .  A
C1300      C1308   1.380       .  A
C1301      C1309   1.379       .  A
C1301      C1312   1.409       .  A
C1302      C1310   1.395       .  A
C1302      C1313   1.435       .  A
C1303      C1304   1.354       .  A
C1303      H1315   1.078       .  S
C1304      H1316   1.081       .  S
C1305      C1306   1.396       .  A
C1305      H1317   1.082       .  S
C1306      H1318   1.080       .  S
C1307      C1308   1.360       .  A
C1307      H1319   1.081       .  S
C1308      H1320   1.080       .  S
C1309      C1310   1.383       .  A
C1309      H1321   1.082       .  S
C1310      H1322   1.082       .  S
C1311      C1346   1.529       .  S
C1312      C1362   1.481       .  S
N1325      C1330   1.352       .  A
N1325      C1329   1.359       .  A
N1325      H1357   1.036       .  S
N1326      C1333   1.353       .  A
N1326      C1334   1.349       .  A
N1327      C1332   1.361       .  A
N1327      C1331   1.351       .  A
N1327      H1358   1.033       .  S
N1328      C1335   1.344       .  A
N1328      C1336   1.348       .  A
C1329      C1337   1.394       .  A
C1329      C1345   1.438       .  A
C1330      C1346   1.412       .  A
C1330      C1338   1.382       .  A
C1331      C1339   1.394       .  A
C1331      C1348   1.433       .  A
C1332      C1347   1.424       .  A
C1332      C1340   1.380       .  A
C1333      C1345   1.422       .  A
C1333      C1341   1.381       .  A
C1334      C1348   1.432       .  A
C1334      C1342   1.392       .  A
C1335      C1343   1.384       .  A
C1335      C1346   1.406       .  A
C1336      C1344   1.390       .  A
C1336      C1347   1.431       .  A
C1337      C1338   1.372       .  A
C1337      H1349   1.077       .  S
C1338      H1350   1.083       .  S
C1339      C1340   1.382       .  A
C1339      H1351   1.082       .  S
C1340      H1352   1.082       .  S
C1341      C1342   1.384       .  A
C1341      H1353   1.082       .  S
C1342      H1354   1.080       .  S
C1343      C1344   1.378       .  A
C1343      H1355   1.083       .  S
C1344      H1356   1.079       .  S
C1347      C1367   1.515       .  S
O1359      C1362   1.266       .  A
O1359     Cd1364   2.491       .  S
C1360      O1369   1.267       .  A
C1360      O1365   1.268       .  A
O1361      C1367   1.271       .  A
O1361     Cd1364   2.580       .  S
C1362      O1370   1.264       .  A
C1363      C1389   1.488       .  S
C1363      O1368   1.270       .  A
C1363      O1366   1.263       .  A
Cd1364     O1371   2.453       .  S
Cd1364     O1370   2.518       .  S
Cd1364     O1369   2.498       .  S
Cd1364     O1365   2.437       .  S
Cd1364     O1368   2.499       .  S
Cd1364     O1366   2.440       .  S
C1367      O1371   1.260       .  A
O1372      C1375   1.271       .  A
O1372     Cd1377   2.580       .  S
C1373      O1382   1.265       .  A
C1373      O1378   1.271       .  A
O1374      C1380   1.268       .  A
O1374     Cd1377   2.472       .  S
C1375      O1383   1.258       .  A
C1376      O1381   1.267       .  A
C1376      O1379   1.266       .  A
Cd1377     O1384   2.445       .  S
Cd1377     O1383   2.492       .  S
Cd1377     O1382   2.451       .  S
Cd1377     O1378   2.550       .  S
Cd1377     O1381   2.520       .  S
Cd1377     O1379   2.496       .  S
C1380      C1398   1.493       .  S
C1380      O1384   1.267       .  A
C1385      C1386   1.400       .  A
C1385      C1390   1.408       .  A
C1385      H1395   1.083       .  S
C1386      C1387   1.416       .  A
C1386      C1391   1.490       .  S
C1387      C1388   1.410       .  A
C1387      C1392   1.519       .  S
C1388      C1389   1.406       .  A
C1388      H1393   1.083       .  S
C1389      C1390   1.422       .  A
C1390      C1394   1.520       .  S
C1391      C1396   1.416       .  A
C1391      C1400   1.403       .  A
C1392      F1408   1.382       .  S
C1392      F1409   1.383       .  S
C1392      F1410   1.385       .  S
C1394      F1405   1.382       .  S
C1394      F1406   1.385       .  S
C1394      F1407   1.383       .  S
C1396      C1397   1.405       .  A
C1396      C1401   1.522       .  S
C1397      C1398   1.407       .  A
C1397      H1402   1.082       .  S
C1398      C1399   1.422       .  A
C1399      C1400   1.413       .  A
C1399      C1403   1.518       .  S
C1400      H1404   1.083       .  S
C1401      F1414   1.385       .  S
C1401      F1415   1.382       .  S
C1401      F1416   1.382       .  S
C1403      F1411   1.384       .  S
C1403      F1412   1.384       .  S
C1403      F1413   1.383       .  S
C1417      C1418   1.397       .  A
C1417      C1422   1.406       .  A
C1417      H1427   1.083       .  S
C1418      C1419   1.416       .  A
C1418      C1423   1.486       .  S
C1419      C1420   1.412       .  A
C1419      C1424   1.519       .  S
C1420      C1421   1.406       .  A
C1420      H1425   1.083       .  S
C1421      C1422   1.421       .  A
C1422      C1426   1.516       .  S
C1423      C1428   1.415       .  A
C1423      C1432   1.403       .  A
C1424      F1440   1.383       .  S
C1424      F1441   1.383       .  S
C1424      F1442   1.384       .  S
C1426      F1437   1.380       .  S
C1426      F1438   1.384       .  S
C1426      F1439   1.382       .  S
C1428      C1429   1.404       .  A
C1428      C1433   1.521       .  S
C1429      C1430   1.406       .  A
C1429      H1434   1.083       .  S
C1430      C1431   1.421       .  A
C1431      C1432   1.413       .  A
C1431      C1435   1.517       .  S
C1432      H1436   1.083       .  S
C1433      F1446   1.385       .  S
C1433      F1447   1.383       .  S
C1433      F1448   1.382       .  S
C1435      F1443   1.385       .  S
C1435      F1444   1.383       .  S
C1435      F1445   1.383       .  S
C1449      C1450   1.404       .  A
C1449      C1454   1.411       .  A
C1449      H1459   1.083       .  S
C1450      C1451   1.418       .  A
C1450      C1455   1.490       .  S
C1451      C1452   1.407       .  A
C1451      C1456   1.521       .  S
C1452      C1453   1.403       .  A
C1452      H1457   1.083       .  S
C1453      C1454   1.417       .  A
C1454      C1458   1.518       .  S
C1455      C1460   1.414       .  A
C1455      C1464   1.399       .  A
C1456      F1472   1.382       .  S
C1456      F1473   1.383       .  S
C1456      F1474   1.385       .  S
C1458      F1469   1.384       .  S
C1458      F1470   1.384       .  S
C1458      F1471   1.382       .  S
C1460      C1461   1.409       .  A
C1460      C1465   1.520       .  S
C1461      C1462   1.411       .  A
C1461      H1466   1.082       .  S
C1462      C1463   1.428       .  A
C1463      C1464   1.412       .  A
C1463      C1467   1.518       .  S
C1464      H1468   1.083       .  S
C1465      F1478   1.384       .  S
C1465      F1479   1.382       .  S
C1465      F1480   1.383       .  S
C1467      F1475   1.385       .  S
C1467      F1476   1.382       .  S
C1467      F1981   1.380       .  S
F1477      C1971   1.381       .  S
C1481      C1482   1.399       .  A
C1481      C1486   1.404       .  A
C1481      H1491   1.083       .  S
C1482      C1483   1.414       .  A
C1482      C1487   1.485       .  S
C1483      C1484   1.410       .  A
C1483      C1488   1.518       .  S
C1484      C1485   1.407       .  A
C1484      H1489   1.083       .  S
C1485      C1486   1.425       .  A
C1486      C1490   1.521       .  S
C1487      C1492   1.415       .  A
C1487      C1496   1.404       .  A
C1488      F1504   1.382       .  S
C1488      F1505   1.382       .  S
C1488      F1506   1.384       .  S
C1490      F1501   1.383       .  S
C1490      F1502   1.385       .  S
C1490      F1503   1.382       .  S
C1492      C1493   1.403       .  A
C1492      C1497   1.522       .  S
C1493      C1494   1.406       .  A
C1493      H1498   1.083       .  S
C1494      C1495   1.420       .  A
C1495      C1496   1.410       .  A
C1495      C1499   1.518       .  S
C1496      H1500   1.083       .  S
C1497      F1510   1.385       .  S
C1497      F1511   1.381       .  S
C1497      F1512   1.381       .  S
C1499      F1507   1.383       .  S
C1499      F1508   1.383       .  S
C1499      F1509   1.385       .  S
N1513      C1518   1.363       .  A
N1513      C1517   1.350       .  A
N1513      H1545   1.034       .  S
N1515      C1520   1.348       .  A
N1515      C1519   1.360       .  A
N1515      H1546   1.031       .  S
N1516      C1523   1.353       .  A
N1516      C1524   1.348       .  A
C1517      C1533   1.417       .  A
C1518      C1534   1.442       .  A
C1519      C1527   1.383   1_545  A
C1520      C1535   1.429       .  A
C1520      C1528   1.392   1_545  A
C1521      C1529   1.384       .  A
C1522      C1536   1.432       .  A
C1522      C1530   1.392       .  A
C1523      C1531   1.380       .  A
C1523      C1534   1.422       .  A
C1524      C1532   1.393       .  A
C1524      C1535   1.432       .  A
C1525      C1526   1.378       .  A
C1525      H1537   1.082       .  S
C1526      H1538   1.077       .  S
C1527      C1528   1.381       .  A
C1527      H1539   1.082       .  S
C1528      H1540   1.082       .  S
C1529      C1530   1.377       .  A
C1529      H1541   1.083       .  S
C1530      H1542   1.078       .  S
C1531      C1532   1.385       .  A
C1531      H1543   1.082       .  S
C1532      H1544   1.079       .  S
C1535      C1783   1.492       .  S
C1536      C1679   1.506   1_545  S
N1547      C1552   1.349   1_645  A
N1547      H1579   1.045       .  S
N1548      C1555   1.350       .  A
N1548      C1556   1.350       .  A
N1549      C1554   1.355       .  A
N1549      H1580   1.040       .  S
N1550      C1557   1.354       .  A
N1550      C1558   1.348       .  A
C1551      C1567   1.400   1_455  A
C1552      C1568   1.391       .  A
C1553      C1561   1.379   1_545  A
C1553      C1570   1.415       .  A
C1554      C1569   1.441       .  A
C1554      C1562   1.397       .  A
C1555      C1567   1.396       .  A
C1555      C1563   1.388       .  A
C1556      C1570   1.389       .  A
C1556      C1564   1.376       .  A
C1557      C1565   1.378       .  A
C1557      C1568   1.406   1_655  A
C1558      C1566   1.397       .  A
C1558      C1569   1.436       .  A
C1559      C1560   1.355   1_545  A
C1560      H1572   1.080       .  S
C1561      H1573   1.082   1_565  S
C1562      H1574   1.080       .  S
C1563      C1564   1.350       .  A
C1563      H1575   1.079       .  S
C1564      H1576   1.080       .  S
C1565      C1566   1.385       .  A
C1565      H1577   1.082       .  S
C1566      H1578   1.081       .  S
C1569      C1877   1.500       .  S
C1570      C1602   1.483       .  S
O1581      C1584   1.267       .  A
O1581     Cd1586   2.454       .  S
C1582      O1591   1.264       .  A
C1582      O1587   1.265       .  A
O1583      C1589   1.268       .  A
O1583     Cd1586   2.481       .  S
C1584      C1852   1.491       .  S
C1584      O1592   1.265       .  A
C1585      C1663   1.512       .  S
C1585      O1590   1.269       .  A
C1585      O1588   1.261       .  A
Cd1586     O1593   2.443       .  S
Cd1586     O1592   2.469       .  S
Cd1586     O1591   2.504       .  S
Cd1586     O1587   2.490       .  S
Cd1586     O1590   2.569       .  S
Cd1586     O1588   2.443       .  S
C1589      C1998   1.486       .  S
C1589      O1593   1.266       .  A
O1594      C1597   1.271       .  A
O1594     Cd1599   2.533       .  S
C1595      O1604   1.256       .  A
C1595      O1600   1.272       .  A
O1596      C1602   1.268       .  A
O1596     Cd1599   2.515       .  S
C1597      C1757   1.500       .  S
C1597      O1605   1.264       .  A
C1598      C1989   1.491       .  S
C1598      O1603   1.270       .  A
C1598      O1601   1.265       .  A
Cd1599     O1606   2.508       .  S
Cd1599     O1605   2.437       .  S
Cd1599     O1604   2.464       .  S
Cd1599     O1600   2.604       .  S
Cd1599     O1603   2.473       .  S
Cd1599     O1601   2.459       .  S
C1602      O1606   1.266       .  A
N1607      C1612   1.346       .  A
N1607      C1611   1.347       .  A
N1607      H1639   1.045       .  S
N1608      C1615   1.358       .  A
N1608      C1616   1.350       .  A
N1609      C1614   1.358       .  A
N1609      C1613   1.353       .  A
N1609      H1640   1.041       .  S
N1610      C1617   1.344       .  A
N1610      C1618   1.347       .  A
C1611      C1627   1.390       .  A
C1612      C1628   1.391       .  A
C1613      C1621   1.397       .  A
C1613      C1630   1.439       .  A
C1614      C1629   1.417       .  A
C1614      C1622   1.379       .  A
C1615      C1627   1.412       .  A
C1615      C1623   1.379       .  A
C1616      C1630   1.437       .  A
C1616      C1624   1.396       .  A
C1617      C1628   1.394       .  A
C1618      C1629   1.385       .  A
C1619      C1620   1.357       .  A
C1619      H1631   1.081       .  S
C1620      H1632   1.075       .  S
C1621      C1622   1.395       .  A
C1621      H1633   1.080       .  S
C1622      H1634   1.082       .  S
C1623      C1624   1.386       .  A
C1623      H1635   1.082       .  S
C1624      H1636   1.082       .  S
C1625      C1626   1.360       .  A
C1625      H1637   1.080       .  S
C1626      H1638   1.081   1_554  S
C1630      C1772   1.501       .  S
N1641      C1645   1.360   1_654  A
N1641      H1673   1.033       .  S
N1642      C1649   1.351       .  A
N1642      C1650   1.345       .  A
N1643      C1647   1.350   1_554  A
N1643      H1674   1.035       .  S
N1644      C1651   1.346       .  A
N1644      C1652   1.348       .  A
C1645      C1661   1.438       .  A
C1646      C1662   1.409       .  A
C1647      C1655   1.394       .  A
C1647      C1664   1.427       .  A
C1648      C1663   1.425       .  A
C1648      C1656   1.381       .  A
C1649      C1661   1.423   1_655  A
C1649      C1657   1.384       .  A
C1650      C1664   1.422       .  A
C1650      C1658   1.389       .  A
C1651      C1659   1.383       .  A
C1651      C1662   1.406       .  A
C1652      C1660   1.391       .  A
C1652      C1663   1.430       .  A
C1653      H1665   1.078   1_554  S
C1654      H1666   1.083       .  S
C1655      H1667   1.081       .  S
C1656      H1668   1.082       .  S
C1657      C1658   1.384       .  A
C1657      H1669   1.082       .  S
C1658      H1670   1.081       .  S
C1659      C1660   1.377       .  A
C1659      H1671   1.083       .  S
C1660      H1672   1.080       .  S
C1664      C1864   1.486       .  S
O1675      C1678   1.268       .  A
O1675     Cd1680   2.460       .  S
C1676      O1685   1.265       .  A
C1676      O1681   1.266       .  A
O1677      C1683   1.269       .  A
O1677     Cd1680   2.511       .  S
C1678      C1723   1.496       .  S
C1678      O1686   1.264       .  A
C1679      O1684   1.269       .  A
C1679      O1682   1.259       .  A
Cd1680     O1687   2.456       .  S
Cd1680     O1686   2.487       .  S
Cd1680     O1685   2.520       .  S
Cd1680     O1681   2.497       .  S
Cd1680     O1684   2.547       .  S
Cd1680     O1682   2.476       .  S
C1683      C1957   1.490       .  S
C1683      O1687   1.266       .  A
O1688      C1691   1.266       .  A
O1688     Cd1693   2.553       .  S
C1689      C1817   1.503       .  S
C1689      O1698   1.264       .  A
C1689      O1694   1.270       .  A
O1690      C1696   1.269       .  A
O1690     Cd1693   2.507       .  S
C1691      O1699   1.260       .  A
C1692      O1697   1.269       .  A
C1692      O1695   1.265   1_554  A
Cd1693     O1700   2.447       .  S
Cd1693     O1699   2.518       .  S
Cd1693     O1698   2.433       .  S
Cd1693     O1694   2.542       .  S
Cd1693     O1697   2.519   1_556  S
Cd1693     O1695   2.483       .  S
C1696      C1966   1.502       .  S
C1696      O1700   1.267       .  A
N1701      C1706   1.360       .  A
N1701      C1705   1.350       .  A
N1701      H1733   1.032       .  S
N1702      C1709   1.347       .  A
N1702      C1710   1.351       .  A
N1703      C1708   1.350       .  A
N1703      C1707   1.358       .  A
N1703      H1734   1.030       .  S
N1704      C1711   1.350       .  A
N1704      C1712   1.346       .  A
C1705      C1713   1.383       .  A
C1705      C1721   1.415       .  A
C1706      C1722   1.441       .  A
C1706      C1714   1.395       .  A
C1707      C1715   1.384       .  A
C1707      C1724   1.426       .  A
C1708      C1723   1.429       .  A
C1708      C1716   1.391       .  A
C1709      C1721   1.414       .  A
C1709      C1717   1.385       .  A
C1710      C1724   1.435       .  A
C1710      C1718   1.391       .  A
C1711      C1719   1.383       .  A
C1711      C1722   1.424       .  A
C1712      C1720   1.391       .  A
C1712      C1723   1.429       .  A
C1713      C1714   1.375       .  A
C1713      H1725   1.083       .  S
C1714      H1726   1.078       .  S
C1715      C1716   1.383       .  A
C1715      H1727   1.082       .  S
C1716      H1728   1.082       .  S
C1717      C1718   1.379       .  A
C1717      H1729   1.083       .  S
C1718      H1730   1.078       .  S
C1719      C1720   1.388       .  A
C1719      H1731   1.082       .  S
C1720      H1732   1.081       .  S
C1721      C1755   1.531       .  S
C1722      C1879   1.507       .  S
C1724      C1790   1.512       .  S
N1735      C1740   1.348       .  A
N1735      C1739   1.350       .  A
N1735      H1767   1.045       .  S
N1736      C1743   1.345       .  A
N1736      C1744   1.347       .  A
N1737      C1742   1.351       .  A
N1737      C1741   1.353       .  A
N1737      H1768   1.041       .  S
N1738      C1745   1.356       .  A
N1738      C1746   1.352       .  A
C1739      C1747   1.383       .  A
C1739      C1755   1.393       .  A
C1740      C1756   1.393   1_565  A
C1740      C1748   1.382       .  A
C1741      C1749   1.380       .  A
C1741      C1758   1.410       .  A
C1742      C1757   1.435   1_565  A
C1742      C1750   1.397       .  A
C1743      C1755   1.396       .  A
C1743      C1751   1.389       .  A
C1744      C1758   1.385       .  A
C1744      C1752   1.377       .  A
C1745      C1753   1.379       .  A
C1745      C1756   1.410       .  A
C1746      C1754   1.395       .  A
C1746      C1757   1.436       .  A
C1747      C1748   1.352       .  A
C1747      H1759   1.079       .  S
C1748      H1760   1.080   1_565  S
C1749      C1750   1.395       .  A
C1749      H1761   1.082       .  S
C1750      H1762   1.081       .  S
C1751      C1752   1.358       .  A
C1751      H1763   1.080       .  S
C1752      H1764   1.080       .  S
C1753      C1754   1.384       .  A
C1753      H1765   1.082       .  S
C1754      H1766   1.081       .  S
C1756      C1785   1.482       .  S
C1758      C1880   1.478       .  S
O1769      C1772   1.270       .  A
O1769     Cd1774   2.539       .  S
C1770      C1849   1.504       .  S
C1770      O1779   1.261       .  A
C1770      O1775   1.266       .  A
O1771      C1777   1.270       .  A
O1771     Cd1774   2.528       .  S
C1772      O1780   1.264       .  A
C1773      C1925   1.496       .  S
C1773      O1778   1.270       .  A
C1773      O1776   1.266       .  A
Cd1774     O1781   2.494       .  S
Cd1774     O1780   2.444       .  S
Cd1774     O1779   2.517       .  S
Cd1774     O1775   2.545       .  S
Cd1774     O1778   2.514       .  S
Cd1774     O1776   2.457       .  S
C1777      C1818   1.486       .  S
C1777      O1781   1.265       .  A
O1782      C1785   1.266       .  A
O1782     Cd1787   2.490       .  S
C1783      O1792   1.263       .  A
C1783      O1788   1.267       .  A
O1784      C1790   1.270   1_545  A
O1784     Cd1787   2.553       .  S
C1785      O1793   1.265       .  A
C1786      C1934   1.487       .  S
C1786      O1791   1.269       .  A
C1786      O1789   1.265       .  A
Cd1787     O1794   2.484   1_545  S
Cd1787     O1793   2.521       .  S
Cd1787     O1792   2.475       .  S
Cd1787     O1788   2.443       .  S
Cd1787     O1791   2.506       .  S
Cd1787     O1789   2.437       .  S
C1790      O1794   1.261       .  A
N1795      C1800   1.348       .  A
N1795      C1799   1.350       .  A
N1795      H1827   1.045       .  S
N1796      C1803   1.343       .  A
N1796      C1804   1.346       .  A
N1797      C1802   1.354       .  A
N1797      C1801   1.357       .  A
N1797      H1828   1.040       .  S
N1798      C1805   1.354       .  A
N1798      C1806   1.349       .  A
C1799      C1807   1.385       .  A
C1799      C1815   1.394       .  A
C1800      C1816   1.393       .  A
C1800      C1808   1.381       .  A
C1801      C1809   1.379       .  A
C1801      C1818   1.417       .  A
C1802      C1817   1.441       .  A
C1802      C1810   1.398       .  A
C1803      C1815   1.394       .  A
C1803      C1811   1.388       .  A
C1804      C1818   1.385       .  A
C1804      C1812   1.379       .  A
C1805      C1813   1.379       .  A
C1805      C1816   1.407       .  A
C1806      C1814   1.396       .  A
C1806      C1817   1.436       .  A
C1807      C1808   1.355       .  A
C1807      H1819   1.076       .  S
C1808      H1820   1.081       .  S
C1809      C1810   1.395       .  A
C1809      H1821   1.082       .  S
C1810      H1822   1.080       .  S
C1811      C1812   1.360       .  A
C1811      H1823   1.080       .  S
C1812      H1824   1.081       .  S
C1813      C1814   1.385       .  A
C1813      H1825   1.082       .  S
C1814      H1826   1.082       .  S
C1815      C1850   1.527       .  S
C1816      C1866   1.477       .  S
N1829      C1834   1.351       .  A
N1829      C1833   1.360       .  A
N1829      H1861   1.035       .  S
N1830      C1837   1.353       .  A
N1830      C1838   1.347       .  A
N1831      C1836   1.359       .  A
N1831      C1835   1.350       .  A
N1831      H1862   1.036       .  S
N1832      C1839   1.345       .  A
N1832      C1840   1.348       .  A
C1833      C1841   1.393       .  A
C1833      C1849   1.438       .  A
C1834      C1850   1.411       .  A
C1834      C1842   1.382       .  A
C1835      C1843   1.393       .  A
C1835      C1852   1.428       .  A
C1836      C1851   1.420       .  A
C1836      C1844   1.381       .  A
C1837      C1849   1.424       .  A
C1837      C1845   1.384       .  A
C1838      C1852   1.423       .  A
C1838      C1846   1.389       .  A
C1839      C1847   1.384       .  A
C1839      C1850   1.405       .  A
C1840      C1848   1.389       .  A
C1840      C1851   1.427       .  A
C1841      C1842   1.373       .  A
C1841      H1853   1.076       .  S
C1842      H1854   1.083       .  S
C1843      C1844   1.382       .  A
C1843      H1855   1.082       .  S
C1844      H1856   1.082       .  S
C1845      C1846   1.383       .  A
C1845      H1857   1.082       .  S
C1846      H1858   1.081       .  S
C1847      C1848   1.377       .  A
C1847      H1859   1.083       .  S
C1848      H1860   1.080       .  S
C1851      C1871   1.509       .  S
O1863      C1866   1.266       .  A
O1863     Cd1868   2.481       .  S
C1864      O1873   1.265       .  A
C1864      O1869   1.267       .  A
O1865      C1871   1.270       .  A
O1865     Cd1868   2.564       .  S
C1866      O1874   1.265       .  A
C1867      C1893   1.486       .  S
C1867      O1872   1.271       .  A
C1867      O1870   1.262       .  A
Cd1868     O1875   2.437       .  S
Cd1868     O1874   2.503       .  S
Cd1868     O1873   2.463       .  S
Cd1868     O1869   2.421       .  S
Cd1868     O1872   2.490       .  S
Cd1868     O1870   2.418       .  S
C1871      O1875   1.261       .  A
O1876      C1879   1.269       .  A
O1876     Cd1881   2.582       .  S
C1877      O1886   1.263       .  A
C1877      O1882   1.270       .  A
O1878      C1884   1.268       .  A
O1878     Cd1881   2.491       .  S
C1879      O1887   1.258       .  A
C1880      O1885   1.268       .  A
C1880      O1883   1.265       .  A
Cd1881     O1888   2.443       .  S
Cd1881     O1887   2.496       .  S
Cd1881     O1886   2.446       .  S
Cd1881     O1882   2.532       .  S
Cd1881     O1885   2.508       .  S
Cd1881     O1883   2.487       .  S
C1884      C1902   1.493       .  S
C1884      O1888   1.267       .  A
C1889      C1890   1.401       .  A
C1889      C1894   1.407       .  A
C1889      H1899   1.083       .  S
C1890      C1891   1.416       .  A
C1890      C1895   1.489       .  S
C1891      C1892   1.409       .  A
C1891      C1896   1.518       .  S
C1892      C1893   1.406       .  A
C1892      H1897   1.083       .  S
C1893      C1894   1.423       .  A
C1894      C1898   1.522       .  S
C1895      C1900   1.415       .  A
C1895      C1904   1.403       .  A
C1896      F1912   1.382       .  S
C1896      F1913   1.383       .  S
C1896      F1914   1.385       .  S
C1898      F1909   1.383       .  S
C1898      F1910   1.385       .  S
C1898      F1911   1.383       .  S
C1900      C1901   1.405       .  A
C1900      C1905   1.522       .  S
C1901      C1902   1.407       .  A
C1901      H1906   1.083       .  S
C1902      C1903   1.422       .  A
C1903      C1904   1.413       .  A
C1903      C1907   1.517       .  S
C1904      H1908   1.083       .  S
C1905      F1918   1.384       .  S
C1905      F1919   1.382       .  S
C1905      F1920   1.383       .  S
C1907      F1915   1.385       .  S
C1907      F1916   1.383       .  S
C1907      F1917   1.383       .  S
C1921      C1922   1.401       .  A
C1921      C1926   1.412       .  A
C1921      H1931   1.083       .  S
C1922      C1923   1.415       .  A
C1922      C1927   1.492       .  S
C1923      C1924   1.409       .  A
C1923      C1928   1.518       .  S
C1924      C1925   1.407       .  A
C1924      H1929   1.083       .  S
C1925      C1926   1.423       .  A
C1926      C1930   1.516       .  S
C1927      C1932   1.416       .  A
C1927      C1936   1.405       .  A
C1928      F1944   1.382       .  S
C1928      F1945   1.382       .  S
C1928      F1946   1.385       .  S
C1930      F1941   1.379       .  S
C1930      F1942   1.385       .  S
C1930      F1943   1.382       .  S
C1932      C1933   1.405       .  A
C1932      C1937   1.520       .  S
C1933      C1934   1.403       .  A
C1933      H1938   1.083       .  S
C1934      C1935   1.420       .  A
C1935      C1936   1.415       .  A
C1935      C1939   1.517       .  S
C1936      H1940   1.083       .  S
C1937      F1950   1.385       .  S
C1937      F1951   1.382       .  S
C1937      F1952   1.381       .  S
C1939      F1947   1.384       .  S
C1939      F1948   1.383       .  S
C1939      F1949   1.383       .  S
C1953      C1954   1.403       .  A
C1953      C1958   1.412       .  A
C1953      H1963   1.083       .  S
C1954      C1955   1.417       .  A
C1954      C1959   1.492       .  S
C1955      C1956   1.408       .  A
C1955      C1960   1.520       .  S
C1956      C1957   1.405       .  A
C1956      H1961   1.083       .  S
C1957      C1958   1.420       .  A
C1958      C1962   1.517       .  S
C1959      C1964   1.413       .  A
C1959      C1968   1.402       .  A
C1960      F1976   1.382       .  S
C1960      F1977   1.381       .  S
C1960      F1978   1.385       .  S
C1962      F1973   1.383       .  S
C1962      F1974   1.385       .  S
C1962      F1975   1.383       .  S
C1964      C1965   1.407       .  A
C1964      C1969   1.520       .  S
C1965      C1966   1.410       .  A
C1965      H1970   1.082       .  S
C1966      C1967   1.427       .  A
C1967      C1968   1.415       .  A
C1967      C1971   1.519   1_556  S
C1968      H1972   1.083   1_556  S
C1969      F1982   1.384       .  S
C1969      F1983   1.382       .  S
C1969      F1984   1.381       .  S
C1971      F1979   1.385       .  S
C1971      F1980   1.384       .  S
C1985      C1986   1.399       .  A
C1985      C1990   1.406       .  A
C1985      H1995   1.083       .  S
C1986      C1987   1.414       .  A
C1986      C1991   1.487       .  S
C1987      C1988   1.409       .  A
C1987      C1992   1.517       .  S
C1988      C1989   1.407       .  A
C1988      H1993   1.083       .  S
C1989      C1990   1.426       .  A
C1990      C1994   1.521       .  S
C1991      C1996   1.415       .  A
C1991      C2000   1.403       .  A
C1992      F2008   1.382       .  S
C1992      F2009   1.382       .  S
C1992      F2010   1.385       .  S
C1994      F2005   1.382       .  S
C1994      F2006   1.386       .  S
C1994      F2007   1.383       .  S
C1996      C1997   1.405       .  A
C1996      C2001   1.519       .  S
C1997      C1998   1.405       .  A
C1997      H2002   1.083       .  S
C1998      C1999   1.420       .  A
C1999      C2000   1.410       .  A
C1999      C2003   1.519       .  S
C2000      H2004   1.083       .  S
C2001      F2014   1.385       .  S
C2001      F2015   1.382       .  S
C2001      F2016   1.383       .  S
C2003      F2011   1.383       .  S
C2003      F2012   1.383       .  S
C2003      F2013   1.385       .  S
