geometry optimzed in LAMMPS
_audit_creation_date              2020-12-01 
_audit_creation_method            'lammps2cif' 
_symmetry_space_group_name_H-M    'P1' 
_symmetry_Int_Tables_number       1 
_symmetry_cell_setting            triclinic 
loop_ 
_symmetry_equiv_pos_as_xyz 
  x,y,z 
_cell_length_a                    31.35823929 
_cell_length_b                    31.7907794703709 
_cell_length_c                    27.23266668113785 
_cell_angle_alpha                 89.96145837194457 
_cell_angle_beta                  89.90180548593952 
_cell_angle_gamma                 89.86504228174206 
loop_ 
_atom_site_label 
_atom_site_type_symbol 
_atom_site_fract_x 
_atom_site_fract_y 
_atom_site_fract_z 
_atom_site_charge 
N1          N  0.19813708  0.91696401  0.59368778     0.02400
C2          C  0.17154957  0.88805922  0.61343230     0.05000
C3          C  0.13200621  0.89013328  0.59137458    -0.17900
C4          C  0.13435083  0.92159890  0.55675121    -0.18100
C5          C  0.17524501  0.93744979  0.55906660     0.04900
H6          H  0.10422087  0.87146091  0.60024406     0.18700
H7          H  0.10879145  0.93228370  0.53314379     0.18700
N8          N  0.32135709  0.94080065  0.62196195     0.02400
C9          C  0.35019765  0.91834459  0.64817029     0.05000
C10         C  0.38965390  0.93745593  0.64623039    -0.17900
C11         C  0.38488388  0.97297282  0.61774774    -0.18100
C12         C  0.34269233  0.97419427  0.60340737     0.04900
H13         H  0.41872248  0.92678544  0.66366575     0.18700
H14         H  0.40946535  0.99553184  0.60867341     0.18700
N15         N  0.31246803  0.09848295  0.48951434     0.02400
C16         C  0.33801001  0.13022120  0.47402391     0.05000
C17         C  0.37503948  0.13112114  0.50132949    -0.17900
C18         C  0.37235015  0.09862140  0.53457495    -0.18100
C19         C  0.33375177  0.07909472  0.52639291     0.04900
H20         H  0.40199065  0.15185575  0.49607379     0.18700
H21         H  0.39675050  0.08908759  0.56037117     0.18700
N22         N  0.19349181  0.06661511  0.44941303     0.02400
C23         C  0.16555022  0.08670533  0.41962288     0.05000
C24         C  0.12761673  0.06488470  0.41712272    -0.17900
C25         C  0.13232510  0.03004244  0.44661964    -0.18100
C26         C  0.17294671  0.03199526  0.46593763     0.04900
H27         H  0.09939771  0.07366066  0.39667275     0.18700
H28         H  0.10846741  0.00627960  0.45387897     0.18700
N29         N  0.19819152  0.41437465  0.48408382     0.02400
C30         C  0.17132391  0.38357197  0.46916962     0.05000
C31         C  0.13559706  0.38260981  0.49884122    -0.17900
C32         C  0.14049553  0.41415770  0.53296291    -0.18100
C33         C  0.17906022  0.43317702  0.52290774     0.04900
H34         H  0.10817343  0.36228967  0.49491647     0.18700
H35         H  0.11758711  0.42336911  0.56073630     0.18700
N36         N  0.31425030  0.44834612  0.43568834     0.02400
C37         C  0.34017232  0.43029169  0.40184794     0.05000
C38         C  0.37611514  0.45455528  0.39478247    -0.17900
C39         C  0.37231399  0.48858974  0.42575425    -0.18100
C40         C  0.33417526  0.48385465  0.45055411     0.04900
H41         H  0.40311164  0.44728289  0.37144984     0.18700
H42         H  0.39584611  0.51295255  0.43140736     0.18300
N43         N  0.19715835  0.56913298  0.62147570     0.02400
C44         C  0.16869210  0.59206086  0.64780448     0.05000
C45         C  0.12846961  0.57479678  0.64414202    -0.17900
C46         C  0.13229824  0.53990896  0.61456776    -0.18100
C47         C  0.17470502  0.53721656  0.60125420     0.04900
H48         H  0.09952105  0.58620832  0.66130395     0.18700
H49         H  0.10696147  0.51865672  0.60417109     0.18700
N50         N  0.32233045  0.58527069  0.59629519     0.02400
C51         C  0.35177656  0.60998854  0.61845043     0.05000
C52         C  0.39132682  0.60405739  0.59716629    -0.17900
C53         C  0.38603609  0.57473507  0.56051583    -0.18100
C54         C  0.34346014  0.56382081  0.56080383     0.04900
H55         H  0.42074208  0.61972047  0.60683548     0.18700
H56         H  0.41049493  0.56299164  0.53597909     0.18700
N57         N  0.44413807  0.92010432  0.97966105     0.02400
C58         C  0.41594561  0.89327624  0.95867810     0.05000
C59         C  0.37692709  0.89583572  0.98203748    -0.17900
C60         C  0.38116831  0.92532556  0.01867021    -0.18100
C61         C  0.42261946  0.93972858  0.01636562     0.04900
H62         H  0.34842813  0.87823342  0.97333035     0.18700
H63         H  0.35663058  0.93526419  0.04416864     0.18700
N64         N  0.06480715  0.94744170  0.94128923     0.02400
C65         C  0.09248587  0.92760916  0.91052956     0.05000
C66         C  0.12892881  0.95142372  0.90475682    -0.17900
C67         C  0.12366843  0.98691426  0.93313543    -0.18100
C68         C  0.08417534  0.98361065  0.95525492     0.04900
H69         H  0.15682353  0.94335640  0.88325009     0.18700
H70         H  0.14665411  0.01188688  0.93810998     0.18700
N71         N  0.44745869  0.05948385  0.13829964     0.02400
C72         C  0.42188625  0.07726882  0.17275434     0.05000
C73         C  0.38592280  0.05297123  0.17971145    -0.17900
C74         C  0.38944789  0.01921809  0.14818735    -0.18100
C75         C  0.42744676  0.02410992  0.12313217     0.04900
H76         H  0.35924631  0.05985681  0.20368256     0.18700
H77         H  0.36604994  0.99468975  0.14278232     0.18700
N78         N  0.06219758  0.09600774  0.08842398     0.02400
C79         C  0.08835879  0.12667454  0.10536894     0.05000
C80         C  0.12403692  0.12974258  0.07583255    -0.17900
C81         C  0.11981386  0.09974120  0.03968688    -0.18100
C82         C  0.08167126  0.07941487  0.04833919     0.04900
H83         H  0.15083575  0.15068603  0.08082870     0.18700
H84         H  0.14269556  0.09270903  0.01103479     0.18700
N85         N  0.44307029  0.56690424  0.95041281     0.02400
C86         C  0.41503870  0.58973647  0.92358349     0.05000
C87         C  0.37478381  0.57243713  0.92653891    -0.17900
C88         C  0.37818670  0.53763451  0.95641407    -0.18100
C89         C  0.42038489  0.53504857  0.97053457     0.04900
H90         H  0.34601602  0.58407154  0.90927607     0.18700
H91         H  0.35259815  0.51670623  0.96701756     0.18700
N92         N  0.06697786  0.58822297  0.97757104     0.02400
C93         C  0.09482215  0.61595967  0.95754669     0.05000
C94         C  0.13390088  0.61304542  0.98059403    -0.17900
C95         C  0.12996806  0.58245114  0.01608209    -0.18100
C96         C  0.08864813  0.56783364  0.01334288     0.04900
H97         H  0.16229830  0.63098282  0.97225503     0.18700
H98         H  0.15468956  0.57170149  0.04080489     0.18700
N99         N  0.44488259  0.41527754  0.09291610     0.02400
C100        C  0.41840668  0.38522826  0.11064370     0.05000
C101        C  0.37991699  0.38638721  0.08611993    -0.17900
C102        C  0.38285251  0.41830684  0.05206796    -0.18100
C103        C  0.42300980  0.43545252  0.05710240     0.04900
H104        H  0.35238769  0.36674510  0.09291217     0.18700
H105        H  0.35805637  0.42851130  0.02713170     0.18700
N106        N  0.06602465  0.44257391  0.12813371     0.02400
C107        C  0.09379236  0.42171041  0.15741807     0.05000
C108        C  0.13302798  0.44129120  0.15708770    -0.17900
C109        C  0.12927127  0.47548650  0.12636769    -0.18100
C110        C  0.08789131  0.47544195  0.10915918     0.04900
H111        H  0.16151391  0.43131372  0.17626201     0.18700
H112        H  0.15425322  0.49746144  0.11679512     0.18700
O113        O  0.14527655  0.80141763  0.84644752    -0.68600
O114        O  0.18502081  0.70959058  0.76587288    -0.68600
O115        O  0.18650320  0.79472379  0.75879195    -0.68600
O116        O  0.14403334  0.71570281  0.85365786    -0.68700
O117        O  0.08089570  0.71428090  0.81598159    -0.68600
O118        O  0.12335023  0.79322403  0.72108296    -0.68600
O119        O  0.12183870  0.70842375  0.72826513    -0.68600
O120        O  0.08227622  0.80001049  0.80853400    -0.68600
Ni121      Ni  0.16741134  0.75539578  0.80770704     1.25400
Ni122      Ni  0.09984585  0.75394068  0.76717412     1.25400
C123        C  0.10754539  0.81618202  0.84019113     0.93600
C124        C  0.15979996  0.69421615  0.73360510     0.93600
C125        C  0.16172408  0.80664801  0.72417540     0.93600
C126        C  0.10587218  0.70170282  0.85014053     0.93800
O127        O  0.43435976  0.79607209  0.81659481    -0.68600
O128        O  0.39837695  0.71411597  0.72139198    -0.68600
O129        O  0.39718898  0.79965882  0.72667902    -0.68600
O130        O  0.43553970  0.71041821  0.81108580    -0.68700
O131        O  0.37084928  0.70828966  0.84536149    -0.68600
O132        O  0.33251890  0.79746096  0.76096139    -0.68600
O133        O  0.33374789  0.71174086  0.75574216    -0.68600
O134        O  0.36969444  0.79364957  0.85084049    -0.68600
Ni135      Ni  0.41865467  0.75518178  0.76764389     1.25400
Ni136      Ni  0.34942268  0.75272691  0.80448630     1.25400
C137        C  0.40769381  0.80835071  0.84928901     0.93600
C138        C  0.36046910  0.69918099  0.72328315     0.93600
C139        C  0.35885865  0.81338105  0.73019623     0.93600
C140        C  0.40911298  0.69446678  0.84171490     0.93800
O141        O  0.14092390  0.21650895  0.22160767    -0.68600
O142        O  0.18011831  0.29442678  0.31952111    -0.68600
O143        O  0.18000326  0.20944062  0.31040708    -0.68600
O144        O  0.14095377  0.30149952  0.23100530    -0.68700
O145        O  0.07705802  0.29898488  0.26717935    -0.68600
O146        O  0.11602230  0.20675006  0.34636900    -0.68600
O147        O  0.11627847  0.29164147  0.35574762    -0.68600
O148        O  0.07694052  0.21377889  0.25745648    -0.68600
Ni149      Ni  0.16273492  0.25554946  0.26928562     1.25400
Ni150      Ni  0.09429363  0.25266535  0.30801987     1.25400
C151        C  0.10264193  0.20252954  0.22322830     0.93600
C152        C  0.15455592  0.30566350  0.35380243     0.93600
C153        C  0.15426323  0.19313683  0.34152542     0.93600
C154        C  0.10285839  0.31542984  0.23622744     0.93800
O155        O  0.37145244  0.28749711  0.21908838    -0.68600
O156        O  0.32929900  0.21514201  0.32110073    -0.68600
O157        O  0.33019718  0.29955255  0.30539164    -0.68600
O158        O  0.37080214  0.20286517  0.23454250    -0.68700
O159        O  0.43378084  0.20731863  0.27220235    -0.68600
O160        O  0.39303498  0.30395795  0.34342562    -0.68600
O161        O  0.39222621  0.21953371  0.35892361    -0.68600
O162        O  0.43435399  0.29233681  0.25688761    -0.68600
Ni163      Ni  0.34827506  0.25104840  0.26860742     1.25400
Ni164      Ni  0.41562540  0.25589176  0.30923219     1.25400
C165        C  0.40932407  0.30233889  0.22161277     0.93600
C166        C  0.35391304  0.20565069  0.35688064     0.93600
C167        C  0.35516511  0.31770648  0.33583187     0.93600
C168        C  0.40868960  0.18907632  0.24188691     0.93800
C169        C  0.08975214  0.35115105  0.20747182    -0.07400
C170        C  0.08620816  0.38299354  0.18361253    -0.09000
C171        C  0.48699325  0.42365119  0.10758244    -0.07400
C172        C  0.02347057  0.43179797  0.11795883    -0.09000
C173        C  0.42627122  0.35705905  0.15138375    -0.07400
C174        C  0.42287660  0.33179194  0.18441404    -0.09000
C175        C  0.07290708  0.50551685  0.07333381    -0.07400
C176        C  0.07320561  0.53394971  0.04388940    -0.09000
C177        C  0.08729611  0.64462487  0.91722967    -0.07400
C178        C  0.09161565  0.67071567  0.88523514    -0.09000
C179        C  0.43662801  0.47201925  0.02965301    -0.07400
C180        C  0.43591075  0.50252506  0.00310846    -0.09000
C181        C  0.48662886  0.57537864  0.95749353    -0.07400
C182        C  0.02390660  0.58199657  0.96530321    -0.09000
C183        C  0.42150113  0.65920063  0.87166760    -0.07400
C184        C  0.42385558  0.62769073  0.89633160    -0.09000
C185        C  0.08351509  0.15100986  0.15009720    -0.07400
C186        C  0.08874435  0.17386934  0.18521404    -0.09000
C187        C  0.48744025  0.07387264  0.12205305    -0.07400
C188        C  0.02214083  0.08448057  0.10735706    -0.09000
C189        C  0.42233901  0.15149813  0.21636188    -0.07400
C190        C  0.42705783  0.11817128  0.19543313    -0.09000
C191        C  0.06918380  0.01382097  0.99140081    -0.07400
C192        C  0.06840197  0.04305194  0.02001217    -0.09000
C193        C  0.09412356  0.85285346  0.86791135    -0.07400
C194        C  0.08828839  0.88604255  0.88897395    -0.09000
C195        C  0.43853803  0.97157489  0.04962851    -0.07400
C196        C  0.43972124  0.99728366  0.08241665    -0.09000
C197        C  0.48679005  0.92712453  0.96563162    -0.07400
C198        C  0.02318735  0.93500542  0.95416735    -0.09000
C199        C  0.42341263  0.86527127  0.91764266    -0.07400
C200        C  0.41997792  0.83952806  0.88512957    -0.09000
C201        C  0.34836895  0.66712354  0.68846273    -0.07400
C202        C  0.34471862  0.64008062  0.65747499    -0.09000
C203        C  0.24099801  0.57691133  0.61513113    -0.07400
C204        C  0.27864168  0.58184417  0.60752739    -0.09000
C205        C  0.17704504  0.62918426  0.67677778    -0.07400
C206        C  0.17343814  0.65967909  0.70300992    -0.09000
C207        C  0.32276438  0.50992238  0.49210243    -0.07400
C208        C  0.32565968  0.53435615  0.52596779    -0.09000
C209        C  0.34126573  0.35523403  0.36092808    -0.07400
C210        C  0.33577343  0.38885435  0.38072521    -0.09000
C211        C  0.19229051  0.47151601  0.54695412    -0.07400
C212        C  0.19100077  0.50347885  0.57094726    -0.09000
C213        C  0.23865759  0.42434167  0.46496442    -0.07400
C214        C  0.27383127  0.43431893  0.45106190    -0.09000
C215        C  0.16878716  0.33449002  0.39127592    -0.07400
C216        C  0.17504034  0.35792697  0.42551988    -0.09000
C217        C  0.16768880  0.15794791  0.37090005    -0.07400
C218        C  0.17194564  0.12617427  0.39467882    -0.09000
C219        C  0.27126101  0.08843783  0.47279656    -0.07400
C220        C  0.23533785  0.07898630  0.46119175    -0.09000
C221        C  0.33873860  0.17861871  0.39570445    -0.07400
C222        C  0.33263510  0.15586575  0.43063404    -0.09000
C223        C  0.32538523  0.00779032  0.57359169    -0.07400
C224        C  0.32246087  0.03995310  0.55009315    -0.09000
C225        C  0.34613959  0.84840763  0.69984905    -0.07400
C226        C  0.34275876  0.87982305  0.67505874    -0.09000
C227        C  0.18843576  0.00174377  0.50117625    -0.07400
C228        C  0.18904988  0.97265303  0.52966620    -0.09000
C229        C  0.24105563  0.92417896  0.60586058    -0.07400
C230        C  0.27812467  0.93125184  0.61430370    -0.09000
C231        C  0.18023314  0.86058602  0.65430980    -0.07400
C232        C  0.17645898  0.83596415  0.68775721    -0.09000
N233        N  0.69813685  0.91696419  0.59368791     0.02400
C234        C  0.67154931  0.88805954  0.61343266     0.05000
C235        C  0.63200586  0.89013384  0.59137523    -0.17900
C236        C  0.63435033  0.92159943  0.55675178    -0.18100
C237        C  0.67524467  0.93745008  0.55906691     0.04900
H238        H  0.60422039  0.87146153  0.60024497     0.18700
H239        H  0.60879102  0.93228426  0.53314468     0.18700
N240        N  0.82135702  0.94080043  0.62196155     0.02400
C241        C  0.85019762  0.91834430  0.64816978     0.05000
C242        C  0.88965392  0.93745554  0.64622967    -0.17900
C243        C  0.88488387  0.97297239  0.61774700    -0.18100
C244        C  0.84269228  0.97419398  0.60340683     0.04900
H245        H  0.91872253  0.92678500  0.66366490     0.18700
H246        H  0.90946542  0.99553138  0.60867248     0.18700
N247        N  0.81246798  0.09848287  0.48951418     0.02400
C248        C  0.83800997  0.13022110  0.47402375     0.05000
C249        C  0.87503948  0.13112091  0.50132923    -0.17900
C250        C  0.87235019  0.09862111  0.53457459    -0.18100
C251        C  0.83375176  0.07909452  0.52639262     0.04900
H252        H  0.90199074  0.15185552  0.49607348     0.18700
H253        H  0.89675060  0.08908720  0.56037071     0.18700
N254        N  0.69349166  0.06661521  0.44941308     0.02400
C255        C  0.66555009  0.08670546  0.41962294     0.05000
C256        C  0.62761657  0.06488489  0.41712282    -0.17900
C257        C  0.63232486  0.03004262  0.44661976    -0.18100
C258        C  0.67294649  0.03199541  0.46593774     0.04900
H259        H  0.59939754  0.07366091  0.39667282     0.18700
H260        H  0.60846718  0.00627988  0.45387907     0.18700
N261        N  0.69819161  0.41437477  0.48408371     0.02400
C262        C  0.67132396  0.38357209  0.46916959     0.05000
C263        C  0.63559714  0.38260998  0.49884125    -0.17900
C264        C  0.64049568  0.41415789  0.53296290    -0.18100
C265        C  0.67906037  0.43317716  0.52290766     0.04900
H266        H  0.60817348  0.36228988  0.49491656     0.18700
H267        H  0.61758730  0.42336935  0.56073631     0.18700
N268        N  0.81425032  0.44834618  0.43568800     0.02400
C269        C  0.84017233  0.43029173  0.40184759     0.05000
C270        C  0.87611517  0.45455530  0.39478211    -0.17900
C271        C  0.87231404  0.48858975  0.42575390    -0.18100
C272        C  0.83417532  0.48385468  0.45055378     0.04900
H273        H  0.90311166  0.44728289  0.37144948     0.18700
H274        H  0.89584620  0.51295255  0.43140702     0.18300
N275        N  0.69715855  0.56913306  0.62147571     0.02400
C276        C  0.66869231  0.59206095  0.64780451     0.05000
C277        C  0.62846978  0.57479692  0.64414205    -0.17900
C278        C  0.63229848  0.53990915  0.61456775    -0.18100
C279        C  0.67470520  0.53721668  0.60125415     0.04900
H280        H  0.59952129  0.58620842  0.66130392     0.18700
H281        H  0.60696155  0.51865681  0.60417096     0.18700
N282        N  0.82233060  0.58527074  0.59629491     0.02400
C283        C  0.85177671  0.60998865  0.61845007     0.05000
C284        C  0.89132695  0.60405764  0.59716576    -0.17900
C285        C  0.88603618  0.57473532  0.56051526    -0.18100
C286        C  0.84346024  0.56382093  0.56080345     0.04900
H287        H  0.92074211  0.61972076  0.60683484     0.18700
H288        H  0.91049493  0.56299200  0.53597846     0.18700
N289        N  0.94413799  0.92010441  0.97966089     0.02400
C290        C  0.91594547  0.89327641  0.95867791     0.05000
C291        C  0.87692696  0.89583603  0.98203726    -0.17900
C292        C  0.88116820  0.92532584  0.01866998    -0.18100
C293        C  0.92261940  0.93972873  0.01636543     0.04900
H294        H  0.84842789  0.87823375  0.97333007     0.18700
H295        H  0.85663049  0.93526450  0.04416839     0.18700
N296        N  0.56480716  0.94744175  0.94128925     0.02400
C297        C  0.59248581  0.92760923  0.91052948     0.05000
C298        C  0.62892873  0.95142385  0.90475657    -0.17900
C299        C  0.62366832  0.98691439  0.93313519    -0.18100
C300        C  0.58417531  0.98361073  0.95525485     0.04900
H301        H  0.65682335  0.94335658  0.88324982     0.18700
H302        H  0.64665397  0.01188710  0.93810964     0.18700
N303        N  0.94745873  0.05948383  0.13829954     0.02400
C304        C  0.92188631  0.07726877  0.17275426     0.05000
C305        C  0.88592291  0.05297115  0.17971142    -0.17900
C306        C  0.88944797  0.01921796  0.14818735    -0.18100
C307        C  0.92744684  0.02410987  0.12313213     0.04900
H308        H  0.85924642  0.05985672  0.20368259     0.18700
H309        H  0.86605012  0.99468967  0.14278240     0.18700
N310        N  0.56219752  0.09600777  0.08842404     0.02400
C311        C  0.58835868  0.12667462  0.10536894     0.05000
C312        C  0.62403681  0.12974274  0.07583252    -0.17900
C313        C  0.61981373  0.09974133  0.03968687    -0.18100
C314        C  0.58167119  0.07941492  0.04833923     0.04900
H315        H  0.65083553  0.15068619  0.08082861     0.18700
H316        H  0.64269541  0.09270920  0.01103471     0.18700
N317        N  0.94307024  0.56690398  0.95041240     0.02400
C318        C  0.91503865  0.58973619  0.92358305     0.05000
C319        C  0.87478377  0.57243679  0.92653836    -0.17900
C320        C  0.87818670  0.53763414  0.95641351    -0.18100
C321        C  0.92038487  0.53504826  0.97053409     0.04900
H322        H  0.84601604  0.58407116  0.90927553     0.18700
H323        H  0.85259818  0.51670582  0.96701693     0.18700
N324        N  0.56697800  0.58822304  0.97757117     0.02400
C325        C  0.59482227  0.61595976  0.95754685     0.05000
C326        C  0.63390103  0.61304546  0.98059415    -0.17900
C327        C  0.62996823  0.58245112  0.01608215    -0.18100
C328        C  0.58864829  0.56783365  0.01334295     0.04900
H329        H  0.66229845  0.63098285  0.97225517     0.18700
H330        H  0.65468972  0.57170144  0.04080493     0.18700
N331        N  0.94488257  0.41527745  0.09291596     0.02400
C332        C  0.91840665  0.38522818  0.11064360     0.05000
C333        C  0.87991701  0.38638714  0.08611978    -0.17900
C334        C  0.88285253  0.41830670  0.05206778    -0.18100
C335        C  0.92300980  0.43545237  0.05710219     0.04900
H336        H  0.85238762  0.36674497  0.09291203     0.18700
H337        H  0.85805635  0.42851114  0.02713144     0.18700
N338        N  0.56602468  0.44257400  0.12813382     0.02400
C339        C  0.59379239  0.42171044  0.15741812     0.05000
C340        C  0.63302801  0.44129119  0.15708770    -0.17900
C341        C  0.62927131  0.47548649  0.12636777    -0.18100
C342        C  0.58789136  0.47544203  0.10915930     0.04900
H343        H  0.66151401  0.43131364  0.17626200     0.18700
H344        H  0.65425335  0.49746146  0.11679514     0.18700
O345        O  0.64527650  0.80141769  0.84644758    -0.68600
O346        O  0.68502090  0.70959067  0.76587300    -0.68600
O347        O  0.68650319  0.79472386  0.75879205    -0.68600
O348        O  0.64403340  0.71570289  0.85365797    -0.68700
O349        O  0.58089577  0.71428090  0.81598167    -0.68600
O350        O  0.62335024  0.79322401  0.72108302    -0.68600
O351        O  0.62183880  0.70842372  0.72826523    -0.68600
O352        O  0.58227619  0.80001047  0.80853402    -0.68600
Ni353      Ni  0.66741137  0.75539585  0.80770714     1.25400
Ni354      Ni  0.59984588  0.75394066  0.76717418     1.25400
C355        C  0.60754533  0.81618204  0.84019115     0.93600
C356        C  0.65980009  0.69421618  0.73360521     0.93600
C357        C  0.66172407  0.80664805  0.72417550     0.93600
C358        C  0.60587224  0.70170288  0.85014065     0.93800
O359        O  0.93435968  0.79607209  0.81659478    -0.68600
O360        O  0.89837703  0.71411596  0.72139188    -0.68600
O361        O  0.89718898  0.79965880  0.72667896    -0.68600
O362        O  0.93553971  0.71041819  0.81108573    -0.68700
O363        O  0.87084927  0.70828959  0.84536137    -0.68600
O364        O  0.83251887  0.79746087  0.76096122    -0.68600
O365        O  0.83374795  0.71174078  0.75574201    -0.68600
O366        O  0.86969433  0.79364952  0.85084039    -0.68600
Ni367      Ni  0.91865468  0.75518177  0.76764383     1.25400
Ni368      Ni  0.84942266  0.75272684  0.80448617     1.25400
C369        C  0.90769369  0.80835069  0.84928895     0.93600
C370        C  0.86046920  0.69918095  0.72328301     0.93600
C371        C  0.85885863  0.81338098  0.73019608     0.93600
C372        C  0.90911297  0.69446672  0.84171478     0.93800
O373        O  0.64092386  0.21650901  0.22160769    -0.68600
O374        O  0.68011826  0.29442684  0.31952114    -0.68600
O375        O  0.68000322  0.20944071  0.31040711    -0.68600
O376        O  0.64095373  0.30149957  0.23100531    -0.68700
O377        O  0.57705799  0.29898495  0.26717937    -0.68600
O378        O  0.61602225  0.20675013  0.34636902    -0.68600
O379        O  0.61627841  0.29164155  0.35574763    -0.68600
O380        O  0.57694047  0.21377896  0.25745649    -0.68600
Ni381      Ni  0.66273487  0.25554952  0.26928564     1.25400
Ni382      Ni  0.59429358  0.25266542  0.30801988     1.25400
C383        C  0.60264188  0.20252961  0.22322832     0.93600
C384        C  0.65455587  0.30566357  0.35380245     0.93600
C385        C  0.65426318  0.19313692  0.34152544     0.93600
C386        C  0.60285836  0.31542989  0.23622745     0.93800
O387        O  0.87145245  0.28749700  0.21908827    -0.68600
O388        O  0.82929899  0.21514192  0.32110061    -0.68600
O389        O  0.83019718  0.29955247  0.30539153    -0.68600
O390        O  0.87080216  0.20286508  0.23454241    -0.68700
O391        O  0.93378084  0.20731853  0.27220231    -0.68600
O392        O  0.89303498  0.30395789  0.34342550    -0.68600
O393        O  0.89222618  0.21953365  0.35892352    -0.68600
O394        O  0.93435400  0.29233669  0.25688750    -0.68600
Ni395      Ni  0.84827507  0.25104831  0.26860731     1.25400
Ni396      Ni  0.91562540  0.25589167  0.30923211     1.25400
C397        C  0.90932408  0.30233876  0.22161265     0.93600
C398        C  0.85391301  0.20565063  0.35688054     0.93600
C399        C  0.85516511  0.31770641  0.33583174     0.93600
C400        C  0.90868962  0.18907623  0.24188685     0.93800
C401        C  0.58975211  0.35115108  0.20747183    -0.07400
C402        C  0.58620816  0.38299358  0.18361255    -0.09000
C403        C  0.98699322  0.42365109  0.10758231    -0.07400
C404        C  0.52347060  0.43179808  0.11795894    -0.09000
C405        C  0.92627120  0.35705894  0.15138362    -0.07400
C406        C  0.92287661  0.33179181  0.18441391    -0.09000
C407        C  0.57290716  0.50551693  0.07333393    -0.07400
C408        C  0.57320573  0.53394975  0.04388949    -0.09000
C409        C  0.58729621  0.64462499  0.91722986    -0.07400
C410        C  0.59161571  0.67071577  0.88523530    -0.09000
C411        C  0.93662802  0.47201903  0.02965269    -0.07400
C412        C  0.93591073  0.50252479  0.00310805    -0.09000
C413        C  0.98662878  0.57537846  0.95749324    -0.07400
C414        C  0.52390671  0.58199669  0.96530341    -0.09000
C415        C  0.92150108  0.65920049  0.87166739    -0.07400
C416        C  0.92385552  0.62769052  0.89633128    -0.09000
C417        C  0.58351500  0.15100994  0.15009721    -0.07400
C418        C  0.58874428  0.17386941  0.18521405    -0.09000
C419        C  0.98744029  0.07387266  0.12205293    -0.07400
C420        C  0.52214079  0.08448055  0.10735715    -0.09000
C421        C  0.92233904  0.15149807  0.21636181    -0.07400
C422        C  0.92705789  0.11817124  0.19543304    -0.09000
C423        C  0.56918381  0.01382104  0.99140078    -0.07400
C424        C  0.56840195  0.04305197  0.02001219    -0.09000
C425        C  0.59412348  0.85285350  0.86791134    -0.07400
C426        C  0.58828833  0.88604260  0.88897392    -0.09000
C427        C  0.93853804  0.97157493  0.04962840    -0.07400
C428        C  0.93972130  0.99728365  0.08241659    -0.09000
C429        C  0.98678999  0.92712454  0.96563148    -0.07400
C430        C  0.52318739  0.93500544  0.95416746    -0.09000
C431        C  0.92341246  0.86527134  0.91764253    -0.07400
C432        C  0.91997775  0.83952807  0.88512950    -0.09000
C433        C  0.84836909  0.66712350  0.68846256    -0.07400
C434        C  0.84471880  0.64008064  0.65747474    -0.09000
C435        C  0.74099820  0.57691137  0.61513107    -0.07400
C436        C  0.77864185  0.58184417  0.60752723    -0.09000
C437        C  0.67704526  0.62918433  0.67677784    -0.07400
C438        C  0.67343833  0.65967914  0.70301003    -0.09000
C439        C  0.82276448  0.50992241  0.49210213    -0.07400
C440        C  0.82565978  0.53435621  0.52596746    -0.09000
C441        C  0.84126575  0.35523400  0.36092790    -0.07400
C442        C  0.83577346  0.38885436  0.38072494    -0.09000
C443        C  0.69229071  0.47151616  0.54695399    -0.07400
C444        C  0.69100094  0.50347898  0.57094715    -0.09000
C445        C  0.73865765  0.42434176  0.46496421    -0.07400
C446        C  0.77383131  0.43431898  0.45106162    -0.09000
C447        C  0.66878712  0.33449009  0.39127595    -0.07400
C448        C  0.67504032  0.35792706  0.42551988    -0.09000
C449        C  0.66768875  0.15794803  0.37090009    -0.07400
C450        C  0.67194556  0.12617438  0.39467887    -0.09000
C451        C  0.77126091  0.08843784  0.47279648    -0.07400
C452        C  0.73533773  0.07898635  0.46119174    -0.09000
C453        C  0.83873855  0.17861866  0.39570436    -0.07400
C454        C  0.83263504  0.15586570  0.43063393    -0.09000
C455        C  0.82538517  0.00779006  0.57359124    -0.07400
C456        C  0.82246081  0.03995289  0.55009278    -0.09000
C457        C  0.84613954  0.84840750  0.69984881    -0.07400
C458        C  0.84275870  0.87982285  0.67505838    -0.09000
C459        C  0.68843550  0.00174392  0.50117638    -0.07400
C460        C  0.68904960  0.97265321  0.52966637    -0.09000
C461        C  0.74105547  0.92417897  0.60586051    -0.07400
C462        C  0.77812455  0.93125173  0.61430349    -0.09000
C463        C  0.68023300  0.86058623  0.65431004    -0.07400
C464        C  0.67645893  0.83596426  0.68775738    -0.09000
loop_ 
_geom_bond_atom_site_label_1 
_geom_bond_atom_site_label_2 
_geom_bond_distance 
_geom_bond_site_symmetry_2 
_ccdc_geom_bond_type 
N1            C5   1.352       .  A
N1            C2   1.353       .  A
N1          C229   1.406       .  S
C2            C3   1.380       .  A
C2          C231   1.440       .  S
C3            C4   1.376       .  A
C3            H6   1.082       .  S
C4            C5   1.380       .  A
C4            H7   1.082       .  S
C5          C228   1.442       .  S
N8           C12   1.353       .  A
N8            C9   1.355       .  A
N8          C230   1.406       .  S
C9           C10   1.381       .  A
C9          C226   1.446       .  S
C10          C11   1.377       .  A
C10          H13   1.082       .  S
C11          C12   1.381       .  A
C11          H14   1.082       .  S
C12         C223   1.446   1_565  S
N15          C19   1.354       .  A
N15          C16   1.356       .  A
N15         C219   1.408       .  S
C16          C17   1.380       .  A
C16         C222   1.445       .  S
C17          C18   1.376       .  A
C17          H20   1.082       .  S
C18          C19   1.380       .  A
C18          H21   1.082       .  S
C19         C224   1.446       .  S
N22          C26   1.353       .  A
N22          C23   1.354       .  A
N22         C220   1.408       .  S
C23          C24   1.380       .  A
C23         C218   1.441       .  S
C24          C25   1.376       .  A
C24          H27   1.082       .  S
C25          C26   1.381       .  A
C25          H28   1.082       .  S
C26         C227   1.442       .  S
N29          C33   1.354       .  A
N29          C30   1.356       .  A
N29         C213   1.408       .  S
C30          C31   1.381       .  A
C30         C216   1.446       .  S
C31          C32   1.377       .  A
C31          H34   1.082       .  S
C32          C33   1.380       .  A
C32          H35   1.082       .  S
C33         C211   1.446       .  S
N36          C40   1.354       .  A
N36          C37   1.355       .  A
N36         C214   1.408       .  S
C37          C38   1.380       .  A
C37         C210   1.445       .  S
C38          C39   1.377       .  A
C38          H41   1.082       .  S
C39          C40   1.381       .  A
C39          H42   1.082       .  S
C40         C207   1.447       .  S
N43          C47   1.354       .  A
N43          C44   1.356       .  A
N43         C203   1.408       .  S
C44          C45   1.381       .  A
C44         C205   1.445       .  S
C45          C46   1.376       .  A
C45          H48   1.082       .  S
C46          C47   1.380       .  A
C46          H49   1.082       .  S
C47         C212   1.446       .  S
N50          C54   1.355       .  A
N50          C51   1.357       .  A
N50         C204   1.408       .  S
C51          C52   1.381       .  A
C51         C202   1.447       .  S
C52          C53   1.377       .  A
C52          H55   1.082       .  S
C53          C54   1.380       .  A
C53          H56   1.082       .  S
C54         C208   1.447       .  S
N57          C61   1.357   1_556  A
N57          C58   1.357       .  A
N57         C197   1.409       .  S
C58          C59   1.380       .  A
C58         C199   1.448       .  S
C59          C60   1.376   1_556  A
C59          H62   1.082       .  S
C60          C61   1.380       .  A
C60          H63   1.082       .  S
C61         C195   1.449       .  S
N64          C68   1.357       .  A
N64          C65   1.359       .  A
N64         C198   1.408       .  S
C65          C66   1.381       .  A
C65         C194   1.453       .  S
C66          C67   1.377       .  A
C66          H69   1.082       .  S
C67          C68   1.380       .  A
C67          H70   1.082   1_565  S
C68         C191   1.453   1_565  S
N71          C75   1.354       .  A
N71          C72   1.356       .  A
N71         C187   1.406       .  S
C72          C73   1.381       .  A
C72         C190   1.449       .  S
C73          C74   1.379       .  A
C73          H76   1.082       .  S
C74          C75   1.381       .  A
C74          H77   1.082   1_545  S
C75         C196   1.450   1_545  S
N78          C82   1.356       .  A
N78          C79   1.357       .  A
N78         C188   1.406       .  S
C79          C80   1.380       .  A
C79         C185   1.451       .  S
C80          C81   1.378       .  A
C80          H83   1.082       .  S
C81          C82   1.381       .  A
C81          H84   1.082       .  S
C82         C192   1.452       .  S
N85          C89   1.354       .  A
N85          C86   1.353       .  A
N85         C181   1.406       .  S
C86          C87   1.380       .  A
C86         C184   1.443       .  S
C87          C88   1.377       .  A
C87          H90   1.082       .  S
C88          C89   1.381       .  A
C88          H91   1.082       .  S
C89         C180   1.446   1_556  S
N92          C96   1.353   1_556  A
N92          C93   1.356       .  A
N92         C182   1.406       .  S
C93          C94   1.381       .  A
C93         C177   1.446       .  S
C94          C95   1.376   1_556  A
C94          H97   1.082       .  S
C95          C96   1.380       .  A
C95          H98   1.082       .  S
C96         C176   1.445       .  S
N99         C103   1.354       .  A
N99         C100   1.355       .  A
N99         C171   1.406       .  S
C100        C101   1.381       .  A
C100        C173   1.446       .  S
C101        C102   1.377       .  A
C101        H104   1.082       .  S
C102        C103   1.380       .  A
C102        H105   1.082       .  S
C103        C179   1.447       .  S
N106        C110   1.353       .  A
N106        C107   1.354       .  A
N106        C172   1.407       .  S
C107        C108   1.380       .  A
C107        C170   1.442       .  S
C108        C109   1.376       .  A
C108        H111   1.082       .  S
C109        C110   1.380       .  A
C109        H112   1.082       .  S
C110        C175   1.444       .  S
O113       Ni121   1.931       .  S
O113        C123   1.283       .  A
O114       Ni121   1.929       .  S
O114        C124   1.281       .  A
O115       Ni121   1.922       .  S
O115        C125   1.279       .  A
O116       Ni121   1.922       .  S
O116        C126   1.281       .  A
O117       Ni122   1.926       .  S
O117        C126   1.280       .  A
O118       Ni122   1.918       .  S
O118        C125   1.281       .  A
O119       Ni122   1.920       .  S
O119        C124   1.281       .  A
O120       Ni122   1.927       .  S
O120        C123   1.281       .  A
Ni121      Ni122   2.391       .  S
C123        C193   1.450       .  S
C124        C206   1.442       .  S
C125        C232   1.437       .  S
C126        C178   1.443       .  S
O127       Ni135   1.928       .  S
O127        C137   1.281       .  A
O128       Ni135   1.925       .  S
O128        C138   1.282       .  A
O129       Ni135   1.922       .  S
O129        C139   1.281       .  A
O130       Ni135   1.924       .  S
O130        C140   1.280       .  A
O131       Ni136   1.919       .  S
O131        C140   1.281       .  A
O132       Ni136   1.925       .  S
O132        C139   1.280       .  A
O133       Ni136   1.926       .  S
O133        C138   1.280       .  A
O134       Ni136   1.923       .  S
O134        C137   1.282       .  A
Ni135      Ni136   2.391       .  S
C137        C200   1.445       .  S
C138        C201   1.444       .  S
C139        C225   1.442       .  S
C140        C183   1.439       .  S
O141       Ni149   1.924       .  S
O141        C151   1.282       .  A
O142       Ni149   1.925       .  S
O142        C152   1.280       .  A
O143       Ni149   1.921       .  S
O143        C153   1.280       .  A
O144       Ni149   1.919       .  S
O144        C154   1.281       .  A
O145       Ni150   1.922       .  S
O145        C154   1.280       .  A
O146       Ni150   1.919       .  S
O146        C153   1.281       .  A
O147       Ni150   1.926       .  S
O147        C152   1.282       .  A
O148       Ni150   1.931       .  S
O148        C151   1.282       .  A
Ni149      Ni150   2.392       .  S
C151        C186   1.448       .  S
C152        C215   1.444       .  S
C153        C217   1.437       .  S
C154        C169   1.439       .  S
O155       Ni163   1.920       .  S
O155        C165   1.281       .  A
O156       Ni163   1.923       .  S
O156        C166   1.280       .  A
O157       Ni163   1.923       .  S
O157        C167   1.280       .  A
O158       Ni163   1.924       .  S
O158        C168   1.281       .  A
O159       Ni164   1.929       .  S
O159        C168   1.281       .  A
O160       Ni164   1.923       .  S
O160        C167   1.282       .  A
O161       Ni164   1.925       .  S
O161        C166   1.282       .  A
O162       Ni164   1.928       .  S
O162        C165   1.281       .  A
Ni163      Ni164   2.391       .  S
C165        C174   1.443       .  S
C166        C221   1.443       .  S
C167        C209   1.442       .  S
C168        C189   1.446       .  S
C169        C170   1.208       .  T
C171        C404   1.207       .  T
C172        C403   1.207   1_455  T
C173        C174   1.210       .  T
C175        C176   1.208       .  T
C177        C178   1.210       .  T
C179        C180   1.209       .  T
C181        C414   1.207       .  T
C182        C413   1.207   1_455  T
C183        C184   1.208       .  T
C185        C186   1.213       .  T
C187        C420   1.207       .  T
C188        C419   1.207   1_455  T
C189        C190   1.212       .  T
C191        C192   1.213   1_556  T
C193        C194   1.215       .  T
C195        C196   1.212       .  T
C197        C430   1.210       .  T
C198        C429   1.210   1_455  T
C199        C200   1.211       .  T
C201        C202   1.211       .  T
C203        C204   1.209       .  T
C205        C206   1.210       .  T
C207        C208   1.210       .  T
C209        C210   1.209       .  T
C211        C212   1.209       .  T
C213        C214   1.209       .  T
C215        C216   1.211       .  T
C217        C218   1.207       .  T
C219        C220   1.209       .  T
C221        C222   1.210       .  T
C223        C224   1.209       .  T
C225        C226   1.210       .  T
C227        C228   1.207   1_545  T
C229        C230   1.207       .  T
C231        C232   1.206       .  T
N233        C237   1.352       .  A
N233        C234   1.353       .  A
N233        C461   1.406       .  S
C234        C235   1.380       .  A
C234        C463   1.440       .  S
C235        C236   1.376       .  A
C235        H238   1.082       .  S
C236        C237   1.380       .  A
C236        H239   1.082       .  S
C237        C460   1.442       .  S
N240        C244   1.353       .  A
N240        C241   1.355       .  A
N240        C462   1.406       .  S
C241        C242   1.381       .  A
C241        C458   1.446       .  S
C242        C243   1.377       .  A
C242        H245   1.082       .  S
C243        C244   1.381       .  A
C243        H246   1.082       .  S
C244        C455   1.446   1_565  S
N247        C251   1.354       .  A
N247        C248   1.356       .  A
N247        C451   1.408       .  S
C248        C249   1.380       .  A
C248        C454   1.445       .  S
C249        C250   1.376       .  A
C249        H252   1.082       .  S
C250        C251   1.380       .  A
C250        H253   1.082       .  S
C251        C456   1.446       .  S
N254        C258   1.353       .  A
N254        C255   1.354       .  A
N254        C452   1.408       .  S
C255        C256   1.380       .  A
C255        C450   1.441       .  S
C256        C257   1.376       .  A
C256        H259   1.082       .  S
C257        C258   1.381       .  A
C257        H260   1.082       .  S
C258        C459   1.442       .  S
N261        C265   1.354       .  A
N261        C262   1.356       .  A
N261        C445   1.408       .  S
C262        C263   1.381       .  A
C262        C448   1.446       .  S
C263        C264   1.377       .  A
C263        H266   1.082       .  S
C264        C265   1.380       .  A
C264        H267   1.082       .  S
C265        C443   1.446       .  S
N268        C272   1.354       .  A
N268        C269   1.355       .  A
N268        C446   1.408       .  S
C269        C270   1.380       .  A
C269        C442   1.445       .  S
C270        C271   1.377       .  A
C270        H273   1.082       .  S
C271        C272   1.381       .  A
C271        H274   1.082       .  S
C272        C439   1.447       .  S
N275        C279   1.354       .  A
N275        C276   1.356       .  A
N275        C435   1.408       .  S
C276        C277   1.381       .  A
C276        C437   1.445       .  S
C277        C278   1.376       .  A
C277        H280   1.082       .  S
C278        C279   1.380       .  A
C278        H281   1.082       .  S
C279        C444   1.446       .  S
N282        C286   1.355       .  A
N282        C283   1.357       .  A
N282        C436   1.408       .  S
C283        C284   1.381       .  A
C283        C434   1.447       .  S
C284        C285   1.377       .  A
C284        H287   1.082       .  S
C285        C286   1.380       .  A
C285        H288   1.082       .  S
C286        C440   1.447       .  S
N289        C293   1.357   1_556  A
N289        C290   1.357       .  A
N289        C429   1.409       .  S
C290        C291   1.380       .  A
C290        C431   1.448       .  S
C291        C292   1.376   1_556  A
C291        H294   1.082       .  S
C292        C293   1.380       .  A
C292        H295   1.082       .  S
C293        C427   1.449       .  S
N296        C300   1.357       .  A
N296        C297   1.359       .  A
N296        C430   1.408       .  S
C297        C298   1.381       .  A
C297        C426   1.453       .  S
C298        C299   1.377       .  A
C298        H301   1.082       .  S
C299        C300   1.380       .  A
C299        H302   1.082   1_565  S
C300        C423   1.453   1_565  S
N303        C307   1.354       .  A
N303        C304   1.356       .  A
N303        C419   1.406       .  S
C304        C305   1.381       .  A
C304        C422   1.449       .  S
C305        C306   1.379       .  A
C305        H308   1.082       .  S
C306        C307   1.381       .  A
C306        H309   1.082   1_545  S
C307        C428   1.450   1_545  S
N310        C314   1.356       .  A
N310        C311   1.357       .  A
N310        C420   1.406       .  S
C311        C312   1.380       .  A
C311        C417   1.451       .  S
C312        C313   1.378       .  A
C312        H315   1.082       .  S
C313        C314   1.381       .  A
C313        H316   1.082       .  S
C314        C424   1.452       .  S
N317        C321   1.354       .  A
N317        C318   1.353       .  A
N317        C413   1.406       .  S
C318        C319   1.380       .  A
C318        C416   1.443       .  S
C319        C320   1.377       .  A
C319        H322   1.082       .  S
C320        C321   1.381       .  A
C320        H323   1.082       .  S
C321        C412   1.446   1_556  S
N324        C328   1.353   1_556  A
N324        C325   1.356       .  A
N324        C414   1.406       .  S
C325        C326   1.381       .  A
C325        C409   1.446       .  S
C326        C327   1.376   1_556  A
C326        H329   1.082       .  S
C327        C328   1.380       .  A
C327        H330   1.082       .  S
C328        C408   1.445       .  S
N331        C335   1.354       .  A
N331        C332   1.355       .  A
N331        C403   1.406       .  S
C332        C333   1.381       .  A
C332        C405   1.446       .  S
C333        C334   1.377       .  A
C333        H336   1.082       .  S
C334        C335   1.380       .  A
C334        H337   1.082       .  S
C335        C411   1.447       .  S
N338        C342   1.353       .  A
N338        C339   1.354       .  A
N338        C404   1.407       .  S
C339        C340   1.380       .  A
C339        C402   1.442       .  S
C340        C341   1.376       .  A
C340        H343   1.082       .  S
C341        C342   1.380       .  A
C341        H344   1.082       .  S
C342        C407   1.444       .  S
O345       Ni353   1.931       .  S
O345        C355   1.283       .  A
O346       Ni353   1.929       .  S
O346        C356   1.281       .  A
O347       Ni353   1.922       .  S
O347        C357   1.279       .  A
O348       Ni353   1.922       .  S
O348        C358   1.281       .  A
O349       Ni354   1.926       .  S
O349        C358   1.280       .  A
O350       Ni354   1.918       .  S
O350        C357   1.281       .  A
O351       Ni354   1.920       .  S
O351        C356   1.281       .  A
O352       Ni354   1.927       .  S
O352        C355   1.281       .  A
Ni353      Ni354   2.391       .  S
C355        C425   1.450       .  S
C356        C438   1.442       .  S
C357        C464   1.437       .  S
C358        C410   1.443       .  S
O359       Ni367   1.928       .  S
O359        C369   1.281       .  A
O360       Ni367   1.925       .  S
O360        C370   1.282       .  A
O361       Ni367   1.922       .  S
O361        C371   1.281       .  A
O362       Ni367   1.924       .  S
O362        C372   1.280       .  A
O363       Ni368   1.919       .  S
O363        C372   1.281       .  A
O364       Ni368   1.925       .  S
O364        C371   1.280       .  A
O365       Ni368   1.926       .  S
O365        C370   1.280       .  A
O366       Ni368   1.923       .  S
O366        C369   1.282       .  A
Ni367      Ni368   2.391       .  S
C369        C432   1.445       .  S
C370        C433   1.444       .  S
C371        C457   1.442       .  S
C372        C415   1.439       .  S
O373       Ni381   1.924       .  S
O373        C383   1.282       .  A
O374       Ni381   1.925       .  S
O374        C384   1.280       .  A
O375       Ni381   1.921       .  S
O375        C385   1.280       .  A
O376       Ni381   1.919       .  S
O376        C386   1.281       .  A
O377       Ni382   1.922       .  S
O377        C386   1.280       .  A
O378       Ni382   1.919       .  S
O378        C385   1.281       .  A
O379       Ni382   1.926       .  S
O379        C384   1.282       .  A
O380       Ni382   1.931       .  S
O380        C383   1.282       .  A
Ni381      Ni382   2.392       .  S
C383        C418   1.448       .  S
C384        C447   1.444       .  S
C385        C449   1.437       .  S
C386        C401   1.439       .  S
O387       Ni395   1.920       .  S
O387        C397   1.281       .  A
O388       Ni395   1.923       .  S
O388        C398   1.280       .  A
O389       Ni395   1.923       .  S
O389        C399   1.280       .  A
O390       Ni395   1.924       .  S
O390        C400   1.281       .  A
O391       Ni396   1.929       .  S
O391        C400   1.281       .  A
O392       Ni396   1.923       .  S
O392        C399   1.282       .  A
O393       Ni396   1.925       .  S
O393        C398   1.282       .  A
O394       Ni396   1.928       .  S
O394        C397   1.281       .  A
Ni395      Ni396   2.391       .  S
C397        C406   1.443       .  S
C398        C453   1.443       .  S
C399        C441   1.442       .  S
C400        C421   1.446       .  S
C401        C402   1.208       .  T
C405        C406   1.210       .  T
C407        C408   1.208       .  T
C409        C410   1.210       .  T
C411        C412   1.209       .  T
C415        C416   1.208       .  T
C417        C418   1.213       .  T
C421        C422   1.212       .  T
C423        C424   1.213   1_556  T
C425        C426   1.215       .  T
C427        C428   1.212       .  T
C431        C432   1.211       .  T
C433        C434   1.211       .  T
C435        C436   1.209       .  T
C437        C438   1.210       .  T
C439        C440   1.210       .  T
C441        C442   1.209       .  T
C443        C444   1.209       .  T
C445        C446   1.209       .  T
C447        C448   1.211       .  T
C449        C450   1.207       .  T
C451        C452   1.209       .  T
C453        C454   1.210       .  T
C455        C456   1.209       .  T
C457        C458   1.210       .  T
C459        C460   1.207   1_545  T
C461        C462   1.207       .  T
C463        C464   1.206       .  T
