geometry optimzed in LAMMPS
_audit_creation_date              2020-11-30 
_audit_creation_method            'lammps2cif' 
_symmetry_space_group_name_H-M    'P1' 
_symmetry_Int_Tables_number       1 
_symmetry_cell_setting            triclinic 
loop_ 
_symmetry_equiv_pos_as_xyz 
  x,y,z 
_cell_length_a                    60.95252415 
_cell_length_b                    39.211738630859166 
_cell_length_c                    34.43905298987398 
_cell_angle_alpha                 90.01748616157764 
_cell_angle_beta                  90.10027666133705 
_cell_angle_gamma                 90.57975598547674 
loop_ 
_atom_site_label 
_atom_site_type_symbol 
_atom_site_fract_x 
_atom_site_fract_y 
_atom_site_fract_z 
_atom_site_charge 
N1          N  0.80458370  0.28213670  0.71589753    -0.26800
N2          N  0.80998614  0.29476595  0.75027190    -0.34600
C3          C  0.79186949  0.30838104  0.76634945     0.01600
C4          C  0.77455016  0.30435359  0.74045410     0.07600
C5          C  0.78328975  0.28773544  0.70889527    -0.05500
H6          H  0.79124236  0.31971879  0.79496257     0.08300
H7          H  0.77456835  0.27858280  0.68350166     0.09500
Cu8        Cu  0.84182487  0.29122585  0.77313829     0.44200
Cu9        Cu  0.82446939  0.25291420  0.68143300     0.42000
Cu10       Cu  0.87674199  0.23313699  0.71528432     0.43900
N11         N  0.87509813  0.28208508  0.78451270    -0.34100
N12         N  0.88697805  0.26080449  0.76359051    -0.28400
C13         C  0.90767120  0.26132454  0.77669186    -0.04500
C14         C  0.90935965  0.28424522  0.80718016     0.07700
C15         C  0.88824781  0.29677604  0.81161084     0.01500
H16         H  0.92067189  0.24635211  0.76414859     0.09200
H17         H  0.88302566  0.31606105  0.83196833     0.08200
N18         N  0.86371936  0.21037348  0.66583740    -0.35600
N19         N  0.84379313  0.21784223  0.65374544    -0.27800
C20         C  0.83861391  0.19830565  0.62301106    -0.03000
C21         C  0.85629712  0.17781496  0.61492382     0.05600
C22         C  0.87204330  0.18612028  0.64253408     0.03700
H23         H  0.82300868  0.19869682  0.60800232     0.08800
H24         H  0.88796258  0.17460466  0.64625786     0.07600
N25         N  0.80311323  0.41373619  0.30901044    -0.26800
N26         N  0.80898717  0.40247452  0.27440724    -0.34600
C27         C  0.79123676  0.38830024  0.25704479     0.01600
C28         C  0.77365130  0.39036416  0.28243912     0.07600
C29         C  0.78183286  0.40657959  0.31497759    -0.05500
H30         H  0.79104810  0.37784108  0.22797216     0.08300
H31         H  0.77271379  0.41440816  0.34033375     0.09500
Cu32       Cu  0.84104070  0.40811423  0.25367211     0.44200
Cu33       Cu  0.82279237  0.44239304  0.34530252     0.42000
Cu34       Cu  0.87652565  0.46249843  0.31769841     0.43900
N35         N  0.87454032  0.41740389  0.24518202    -0.34100
N36         N  0.88666583  0.43706906  0.26817080    -0.28400
C37         C  0.90746660  0.43686958  0.25577206    -0.04500
C38         C  0.90888270  0.41587964  0.22356406     0.07700
C39         C  0.88758368  0.40413172  0.21746213     0.01500
H40         H  0.92062054  0.45098885  0.26970424     0.09200
H41         H  0.88206033  0.38651479  0.19524701     0.08200
N42         N  0.86277174  0.48263385  0.36756070    -0.35600
N43         N  0.84238290  0.47496160  0.37722275    -0.27800
C44         C  0.83681130  0.49263935  0.40896627    -0.03000
C45         C  0.85465095  0.51231533  0.42016096     0.05600
C46         C  0.87095144  0.50526676  0.39341624     0.03700
H47         H  0.82078667  0.49166560  0.42239079     0.08800
H48         H  0.88716415  0.51668442  0.39196850     0.07600
C49         C  0.95080601  0.31389661  0.88428909     0.03700
C50         C  0.93057507  0.30685051  0.86555781    -0.12500
C51         C  0.93008481  0.29426620  0.82731033     0.01200
C52         C  0.94995399  0.28972788  0.80772356    -0.11000
C53         C  0.97023127  0.29566774  0.82579098     0.03700
C54         C  0.97057383  0.30809751  0.86398495    -0.10400
H55         H  0.91528707  0.31042548  0.88093899     0.09200
H56         H  0.94958864  0.28165653  0.77774844     0.06800
H57         H  0.98625658  0.31238337  0.87788220     0.06600
C58         C  0.94873227  0.39021027  0.14335479     0.03700
C59         C  0.92895462  0.39594363  0.16363924    -0.12500
C60         C  0.92928086  0.40753972  0.20217035     0.01200
C61         C  0.94950300  0.41261413  0.22060044    -0.11000
C62         C  0.96939192  0.40847873  0.20094674     0.03700
C63         C  0.96894068  0.39679507  0.16232613    -0.10400
H64         H  0.91328621  0.39222279  0.14949908     0.09200
H65         H  0.94973337  0.41982204  0.25085254     0.06800
H66         H  0.98423343  0.39341231  0.14690683     0.06600
N67         N  0.09440664  0.29246612  0.71099759    -0.26800
N68         N  0.08954814  0.30172481  0.74690154    -0.34600
C69         C  0.10798449  0.31364221  0.76412414     0.01600
C70         C  0.12500648  0.31203745  0.73755094     0.07600
C71         C  0.11575748  0.29859410  0.70426526    -0.05500
H72         H  0.10904317  0.32201713  0.79400961     0.08300
H73         H  0.12415510  0.29180336  0.67775866     0.09500
Cu74       Cu  0.05814108  0.29615310  0.77076839     0.44200
Cu75       Cu  0.07366741  0.26647196  0.67378460     0.42000
Cu76       Cu  0.02255628  0.24157294  0.70966828     0.43900
N77         N  0.02488842  0.28649346  0.78185097    -0.34100
N78         N  0.01270422  0.26648600  0.75941604    -0.28400
C79         C  0.99202524  0.26628849  0.77231734    -0.04500
C80         C  0.99066757  0.28741135  0.80438193     0.07700
C81         C  0.01196190  0.29962694  0.80988645     0.01500
H82         H  0.97889865  0.25190308  0.75866796     0.09200
H83         H  0.01749743  0.31758117  0.83174229     0.08200
N84         N  0.03458554  0.22205570  0.65836246    -0.35600
N85         N  0.05385607  0.23194518  0.64485573    -0.27800
C86         C  0.05842552  0.21415548  0.61263937    -0.03000
C87         C  0.04109490  0.19209759  0.60536907     0.05600
C88         C  0.02615271  0.19777563  0.63486051     0.03700
H89         H  0.07354397  0.21640482  0.59638099     0.08800
H90         H  0.01073807  0.18453715  0.63965912     0.07600
N91         N  0.09533157  0.42224262  0.30895090    -0.26800
N92         N  0.08958480  0.40829915  0.27541897    -0.34600
C93         C  0.10708943  0.39182403  0.26088551     0.01600
C94         C  0.12434012  0.39537440  0.28696073     0.07600
C95         C  0.11621548  0.41466062  0.31700294    -0.05500
H96         H  0.10740136  0.37898895  0.23308291     0.08300
H97         H  0.12516547  0.42433886  0.34189205     0.09500
Cu98       Cu  0.05810835  0.41318006  0.25185881     0.44200
Cu99       Cu  0.07661814  0.45484658  0.34131611     0.42000
Cu100      Cu  0.02253818  0.46629136  0.31513464     0.43900
N101        N  0.02458957  0.42102375  0.24263365    -0.34100
N102        N  0.01246395  0.43997888  0.26588378    -0.28400
C103        C  0.99162333  0.43887883  0.25373686    -0.04500
C104        C  0.99008457  0.41795495  0.22143354     0.07700
C105        C  0.01144737  0.40727062  0.21493096     0.01500
H106        H  0.97851448  0.45238610  0.26796503     0.09200
H107        H  0.01690938  0.38991042  0.19261663     0.08200
N108        N  0.03606988  0.49200944  0.36209520    -0.35600
N109        N  0.05700816  0.48837709  0.37059209    -0.27800
C110        C  0.06250488  0.50960614  0.39961924    -0.03000
C111        C  0.04396759  0.52718154  0.41040900     0.05600
C112        C  0.02738736  0.51531936  0.38622726     0.03700
H113        H  0.07880727  0.51209792  0.41184108     0.08800
H114        H  0.01059160  0.52394348  0.38518713     0.07600
N115        N  0.59398268  0.29068085  0.80811171    -0.26800
N116        N  0.58879802  0.29959991  0.77222247    -0.34600
C117        C  0.60707625  0.31159511  0.75456208     0.01600
C118        C  0.62427731  0.31050119  0.78098119     0.07600
C119        C  0.61529806  0.29723121  0.81448465    -0.05500
H120        H  0.60787791  0.31986025  0.72462459     0.08300
H121        H  0.62387447  0.29081936  0.84098129     0.09500
Cu122      Cu  0.55692207  0.29448123  0.75000921     0.44200
Cu123      Cu  0.57386617  0.26496961  0.84639592     0.42000
Cu124      Cu  0.52013295  0.24951332  0.81981568     0.43900
N125        N  0.52298850  0.28824167  0.74279223    -0.34100
N126        N  0.51040291  0.27246364  0.76853955    -0.28400
C127        C  0.48954448  0.27312292  0.75650787    -0.04500
C128        C  0.48846977  0.29024839  0.72137010     0.07700
C129        C  0.51013987  0.29940487  0.71347723     0.01500
H130        H  0.47626090  0.26133335  0.77249419     0.09200
H131        H  0.51614154  0.31339871  0.68854665     0.08200
N132        N  0.53326447  0.22725239  0.86899486    -0.35600
N133        N  0.55390193  0.23314395  0.87857906    -0.27800
C134        C  0.55918332  0.21379289  0.90927284    -0.03000
C135        C  0.54087319  0.19493661  0.91981099     0.05600
C136        C  0.52462443  0.20412396  0.89371709     0.03700
H137        H  0.57534549  0.21279235  0.92223886     0.08800
H138        H  0.50814969  0.19373742  0.89175401     0.07600
N139        N  0.59517794  0.42241767  0.21636099    -0.26800
N140        N  0.58937734  0.40979176  0.25050520    -0.34600
C141        C  0.60688601  0.39399252  0.26617000     0.01600
C142        C  0.62424250  0.39660760  0.24026776     0.07600
C143        C  0.61613804  0.41467930  0.20914201    -0.05500
H144        H  0.60709090  0.38209580  0.29450634     0.08300
H145        H  0.62510660  0.42318988  0.18379824     0.09500
Cu146      Cu  0.55784741  0.41567775  0.27349467     0.44200
Cu147      Cu  0.57626105  0.45322442  0.18152030     0.42000
Cu148      Cu  0.52315627  0.47057573  0.21057258     0.43900
N149        N  0.52465220  0.42578039  0.28351123    -0.34100
N150        N  0.51284181  0.44562565  0.26064617    -0.28400
C151        C  0.49207081  0.44565618  0.27317359    -0.04500
C152        C  0.49026082  0.42454784  0.30526802     0.07700
C153        C  0.51138628  0.41259233  0.31129512     0.01500
H154        H  0.47910067  0.45963373  0.25905798     0.09200
H155        H  0.51652321  0.39447324  0.33308699     0.08200
N156        N  0.53641679  0.49289343  0.16113015    -0.35600
N157        N  0.55682830  0.48661284  0.15096863    -0.27800
C158        C  0.56220233  0.50592939  0.12017740    -0.03000
C159        C  0.54416358  0.52517368  0.11010943     0.05600
C160        C  0.52800075  0.51614353  0.13655089     0.03700
H161        H  0.57819514  0.50633834  0.10660408     0.08800
H162        H  0.51173197  0.52674157  0.13879963     0.07600
C163        C  0.44926355  0.31324469  0.63839419     0.03700
C164        C  0.46883788  0.30861056  0.65986371    -0.12500
C165        C  0.46818638  0.29648502  0.69825995     0.01200
C166        C  0.44772805  0.28933198  0.71501625    -0.11000
C167        C  0.42814620  0.29260592  0.69417945     0.03700
C168        C  0.42893873  0.30505647  0.65596645    -0.10400
H169        H  0.48457923  0.31413041  0.64687614     0.09200
H170        H  0.44685035  0.28142401  0.74496020     0.06800
H171        H  0.41380069  0.30782979  0.63980605     0.06600
C172        C  0.44832039  0.39637528  0.38192328     0.03700
C173        C  0.46865285  0.40359840  0.36379375    -0.12500
C174        C  0.46941288  0.41499170  0.32509503     0.01200
C175        C  0.44972529  0.41825455  0.30448301    -0.11000
C176        C  0.42932058  0.41231902  0.32191037     0.03700
C177        C  0.42871041  0.40109385  0.36062331    -0.10400
H178        H  0.48381544  0.40082684  0.37987175     0.09200
H179        H  0.45034245  0.42523253  0.27419618     0.06800
H180        H  0.41295248  0.39654711  0.37402414     0.06600
N181        N  0.30243870  0.41831248  0.21494119    -0.26800
N182        N  0.30871268  0.40713371  0.24940456    -0.34600
C183        C  0.29118928  0.39297584  0.26730630     0.01600
C184        C  0.27335024  0.39492411  0.24242677     0.07600
C185        C  0.28110963  0.41105163  0.20959735    -0.05500
H186        H  0.29135237  0.38249203  0.29635724     0.08300
H187        H  0.27168837  0.41871158  0.18446760     0.09500
Cu188      Cu  0.34093970  0.41224548  0.26954820     0.44200
Cu189      Cu  0.32157197  0.44695654  0.17794215     0.42000
Cu190      Cu  0.37649001  0.46217210  0.20269146     0.43900
N191        N  0.37462743  0.42016097  0.27735365    -0.34100
N192        N  0.38689806  0.43806946  0.25294506    -0.28400
C193        C  0.40772321  0.43806552  0.26535050    -0.04500
C194        C  0.40902010  0.41907114  0.29919067     0.07700
C195        C  0.38759058  0.40821694  0.30605639     0.01500
H196        H  0.42088982  0.45135670  0.25056306     0.09200
H197        H  0.38186170  0.39240082  0.32975690     0.08200
N198        N  0.36228103  0.48448769  0.15440788    -0.35600
N199        N  0.34140791  0.47903559  0.14607299    -0.27800
C200        C  0.33566798  0.49854311  0.11583139    -0.03000
C201        C  0.35391289  0.51700807  0.10419766     0.05600
C202        C  0.37061092  0.50738177  0.12908582     0.03700
H203        H  0.31929558  0.49964279  0.10374605     0.08800
H204        H  0.38720614  0.51741643  0.12990421     0.07600
N205        N  0.30434598  0.28912328  0.80940548    -0.26800
N206        N  0.30988622  0.30064310  0.77463832    -0.34600
C207        C  0.29212722  0.31499807  0.75819762     0.01600
C208        C  0.27482656  0.31262179  0.78414908     0.07600
C209        C  0.28322457  0.29622228  0.81625471    -0.05500
H210        H  0.29163391  0.32524588  0.72904971     0.08300
H211        H  0.27427216  0.28783883  0.84167675     0.09500
Cu212      Cu  0.34101949  0.29392285  0.75068440     0.44200
Cu213      Cu  0.32368658  0.25882351  0.84407558     0.42000
Cu214      Cu  0.37461544  0.23364823  0.80653920     0.43900
N215        N  0.37342731  0.28186838  0.73709798    -0.34100
N216        N  0.38495647  0.25960674  0.75730316    -0.28400
C217        C  0.40546522  0.25892511  0.74349371    -0.04500
C218        C  0.40733071  0.28211314  0.71333078     0.07700
C219        C  0.38656075  0.29601537  0.70977152     0.01500
H220        H  0.41835322  0.24352496  0.75580544     0.09200
H221        H  0.38170817  0.31628447  0.69036889     0.08200
N222        N  0.36213712  0.21361280  0.85769195    -0.35600
N223        N  0.34292124  0.22309151  0.87134576    -0.27800
C224        C  0.33822807  0.20495304  0.90337480    -0.03000
C225        C  0.35546523  0.18324758  0.91051919     0.05600
C226        C  0.37043890  0.18940305  0.88107741     0.03700
H227        H  0.32320188  0.20702387  0.91985145     0.08800
H228        H  0.38580842  0.17652434  0.87625573     0.07600
C229        C  0.36598632  0.07698410  0.03149977     0.30300
C230        C  0.37892616  0.09515998  0.00466637    -0.36000
C231        C  0.36781203  0.11902403  0.98164517     0.16300
C232        C  0.34560776  0.12486883  0.98527756     0.22100
C233        C  0.33269471  0.10656320  0.01174587    -0.34200
C234        C  0.34370322  0.08244761  0.03422430     0.16200
O235        O  0.37279059  0.05337432  0.05595767    -0.26200
C236        C  0.35451496  0.04343606  0.07401549     0.06000
C237        C  0.33596360  0.06058293  0.06155956    -0.31100
O238        O  0.33854126  0.14835320  0.96117401    -0.22900
C239        C  0.35635351  0.15753381  0.94144262    -0.02900
C240        C  0.37508882  0.14011273  0.95280844    -0.17300
H241        H  0.39635863  0.09086649  0.00178077     0.20700
H242        H  0.31522975  0.11067028  0.01442324     0.19100
H243        H  0.31922493  0.05763609  0.07154854     0.19000
H244        H  0.39158792  0.14267203  0.94154538     0.14900
C245        C  0.45908254  0.36790330  0.47743696     0.30300
C246        C  0.47219486  0.35855568  0.50921207    -0.38000
C247        C  0.46098723  0.34623497  0.54202710     0.16300
C248        C  0.43845777  0.34334473  0.54357659     0.22100
C249        C  0.42534141  0.35275021  0.51183125    -0.34200
C250        C  0.43655181  0.36504212  0.47900396     0.16200
O251        O  0.46611336  0.37948364  0.44361801    -0.26200
C252        C  0.44785671  0.38416840  0.42296146     0.06000
C253        C  0.42894227  0.37560012  0.44384881    -0.31100
O254        O  0.43144658  0.33130634  0.57719452    -0.22900
C255        C  0.44971503  0.32635885  0.59773728    -0.02900
C256        C  0.46861628  0.33524272  0.57699863    -0.17300
H257        H  0.48990796  0.36060427  0.50835661     0.20700
H258        H  0.40763372  0.35054038  0.51261841     0.19100
H259        H  0.41197755  0.37643501  0.43473415     0.19000
H260        H  0.48558978  0.33409840  0.58600524     0.14900
C261        C  0.55149200  0.13376157  0.99111868     0.30300
C262        C  0.56480606  0.11366425  0.01485629    -0.36000
C263        C  0.55386575  0.09015158  0.03866655     0.16300
C264        C  0.53131109  0.08686005  0.03968715     0.22100
C265        C  0.51792782  0.10685252  0.01556093    -0.34200
C266        C  0.52893731  0.13017475  0.99122155     0.16200
O267        O  0.55843957  0.15710085  0.96648353    -0.26200
C268        C  0.54017804  0.16856386  0.95015239     0.06000
C269        C  0.52125438  0.15272210  0.96430379    -0.31100
O270        O  0.52468068  0.06359284  0.06499203    -0.22900
C271        C  0.54330323  0.05167749  0.07984250    -0.02900
C272        C  0.56191906  0.06721486  0.06438016    -0.17300
H273        H  0.58250888  0.11610447  0.01464977     0.20700
H274        H  0.50022951  0.10435322  0.01568732     0.19100
H275        H  0.50439081  0.15718902  0.95601995     0.19000
H276        H  0.57893645  0.06269456  0.07156291     0.14900
C277        C  0.22048455  0.38250520  0.27947075     0.30300
C278        C  0.20385348  0.38498144  0.30734221    -0.36000
C279        C  0.18229771  0.38253699  0.29327506     0.16300
C280        C  0.17735207  0.37751455  0.25453161     0.22100
C281        C  0.19399361  0.37467536  0.22671152    -0.34200
C282        C  0.21555024  0.37769064  0.24068444     0.16200
O283        O  0.24164944  0.38747303  0.28561290    -0.26200
C284        C  0.25032603  0.38607361  0.25026750     0.06000
C285        C  0.23488267  0.37998211  0.22124197    -0.31100
O286        O  0.15612308  0.37938486  0.24733728    -0.22900
C287        C  0.14740981  0.38585302  0.28189618    -0.02900
C288        C  0.16291381  0.38782013  0.31154355    -0.17300
H289        H  0.20743832  0.39027001  0.33756018     0.20700
H290        H  0.19037233  0.37219984  0.19605169     0.19100
H291        H  0.23741871  0.37911962  0.19015582     0.19000
H292        H  0.16042539  0.39436419  0.34174068     0.14900
C293        C  0.17845510  0.32385942  0.77309234     0.30300
C294        C  0.19502737  0.32413827  0.80136017    -0.36000
C295        C  0.21662673  0.32455864  0.78743129     0.16300
C296        C  0.22167254  0.32517766  0.74836682     0.22100
C297        C  0.20508249  0.32517927  0.72006375    -0.34200
C298        C  0.18346090  0.32422175  0.73400680     0.16200
O299        O  0.15720326  0.32077403  0.77961462    -0.26200
C300        C  0.14848147  0.31893007  0.74425177     0.06000
C301        C  0.16404019  0.32100973  0.71477066    -0.31100
O302        O  0.24294930  0.32279165  0.74191003    -0.22900
C303        C  0.25158290  0.32040151  0.77730693    -0.02900
C304        C  0.23597828  0.32153687  0.80669253    -0.17300
H305        H  0.19134543  0.32262000  0.83205265     0.20700
H306        H  0.20877148  0.32443369  0.68934190     0.19100
H307        H  0.16148707  0.31915787  0.68372856     0.19000
H308        H  0.23843152  0.31876299  0.83766258     0.14900
C309        C  0.03131547  0.08545367  0.48417037     0.30300
C310        C  0.01863003  0.10098299  0.51315514    -0.36000
C311        C  0.02926663  0.12652462  0.53502107     0.16300
C312        C  0.05077209  0.13625397  0.52841197     0.22100
C313        C  0.06344108  0.12062578  0.49978236    -0.34200
C314        C  0.05294116  0.09491880  0.47838239     0.16200
O315        O  0.02494774  0.06070223  0.46053918    -0.26200
C316        C  0.04287364  0.05411764  0.43991418     0.06000
C317        C  0.06074424  0.07456397  0.44984449    -0.31100
O318        O  0.05751453  0.16058437  0.55196831    -0.22900
C319        C  0.04020973  0.16652956  0.57425576    -0.02900
C320        C  0.02211593  0.14604521  0.56518990    -0.17300
H321        H  0.00176043  0.09351246  0.51847570     0.20700
H322        H  0.08039713  0.12780049  0.49479745     0.19100
H323        H  0.07711948  0.07441937  0.43773429     0.19000
H324        H  0.00612097  0.14561385  0.57878383     0.14900
C325        C  0.93961630  0.34083966  0.98010745     0.30300
C326        C  0.92641551  0.34847846  0.01226776    -0.36000
C327        C  0.93749205  0.35996805  0.04566043     0.16300
C328        C  0.95997827  0.36367232  0.04741155     0.22100
C329        C  0.97318375  0.35601543  0.01525298    -0.34200
C330        C  0.96210298  0.34454826  0.98184247     0.16200
O331        O  0.93273117  0.32977198  0.94593700    -0.26200
C332        C  0.95104250  0.32625619  0.92524347     0.06000
C333        C  0.96983690  0.33519017  0.94639269    -0.31100
O334        O  0.96685148  0.37469997  0.08161065    -0.22900
C335        C  0.94852624  0.37820435  0.10227610    -0.02900
C336        C  0.92974389  0.36929789  0.08109790    -0.17300
H337        H  0.90873966  0.34567193  0.01132727     0.20700
H338        H  0.99086103  0.35879392  0.01620588     0.19100
H339        H  0.98681490  0.33505867  0.93738383     0.19000
H340        H  0.91276647  0.36933928  0.09011504     0.14900
C341        C  0.72026402  0.37879381  0.24681591     0.30300
C342        C  0.70343924  0.38158884  0.21924596    -0.36000
C343        C  0.68196944  0.38080995  0.23380735     0.16300
C344        C  0.67723045  0.37698771  0.27276243     0.22100
C345        C  0.69406809  0.37370090  0.30031507    -0.34200
C346        C  0.71557694  0.37509992  0.28581855     0.16200
O347        O  0.74145652  0.38273984  0.24009984    -0.26200
C348        C  0.75044577  0.38180856  0.27528239     0.06000
C349        C  0.73514192  0.37695794  0.30477125    -0.31100
O350        O  0.65609558  0.38028719  0.28024722    -0.22900
C351        C  0.64725589  0.38646732  0.24562174    -0.02900
C352        C  0.66258623  0.38683552  0.21572692    -0.17300
H353        H  0.70686732  0.38602200  0.18882166     0.20700
H354        H  0.69067839  0.37215927  0.33111124     0.19100
H355        H  0.73792403  0.37684496  0.33582307     0.19000
H356        H  0.66002115  0.39266964  0.18535200     0.14900
C357        C  0.72103655  0.31931384  0.77327046     0.30300
C358        C  0.70414120  0.32158385  0.80070829    -0.36000
C359        C  0.68270205  0.32149582  0.78579783     0.16300
C360        C  0.67810354  0.31973696  0.74656996     0.22100
C361        C  0.69500700  0.31774267  0.71911332    -0.34200
C362        C  0.71643704  0.31735989  0.73405614     0.16200
O363        O  0.74218131  0.31633593  0.78087441    -0.26200
C364        C  0.75120205  0.31223538  0.74605889     0.06000
C365        C  0.73595879  0.31273659  0.71592179    -0.31100
O366        O  0.65685421  0.31732325  0.73933193    -0.22900
C367        C  0.64776342  0.31735555  0.77441914    -0.02900
C368        C  0.66306602  0.32009089  0.80433619    -0.17300
H369        H  0.70743500  0.32193158  0.83160389     0.20700
H370        H  0.69165993  0.31516680  0.68836717     0.19100
H371        H  0.73875824  0.30895864  0.68519995     0.19000
H372        H  0.66020919  0.31939560  0.83533733     0.14900
C373        C  0.86668212  0.07235747  0.49299432     0.30300
C374        C  0.87983261  0.09304214  0.51712495    -0.36000
C375        C  0.86855809  0.11458017  0.54268583     0.16300
C376        C  0.84594307  0.11597392  0.54390748     0.22100
C377        C  0.83284315  0.09505539  0.52023341    -0.34200
C378        C  0.84408500  0.07326119  0.49518795     0.16200
O379        O  0.87361089  0.05074609  0.46636613    -0.26200
C380        C  0.85515921  0.03746410  0.45181489     0.06000
C381        C  0.83633822  0.05042523  0.46881355    -0.31100
O382        O  0.83878554  0.13843456  0.56916259    -0.22900
C383        C  0.85700507  0.15134990  0.58480482    -0.02900
C384        C  0.87606535  0.13742824  0.56960783    -0.17300
H385        H  0.89756684  0.09247351  0.51596626     0.20700
H386        H  0.81510625  0.09580000  0.52119275     0.19100
H387        H  0.81937603  0.04449477  0.46206500     0.19000
H388        H  0.89291627  0.14359435  0.57694308     0.14900
N389        N  0.80458364  0.78213660  0.71589757    -0.26800
N390        N  0.80998611  0.79476583  0.75027195    -0.34600
C391        C  0.79186950  0.80838109  0.76634943     0.01600
C392        C  0.77455016  0.80435369  0.74045406     0.07600
C393        C  0.78328972  0.78773549  0.70889527    -0.05500
H394        H  0.79124237  0.81971890  0.79496253     0.08300
H395        H  0.77456827  0.77858288  0.68350163     0.09500
Cu396      Cu  0.84182487  0.79122571  0.77313828     0.44200
Cu397      Cu  0.82446942  0.75291428  0.68143298     0.42000
Cu398      Cu  0.87674188  0.73313708  0.71528432     0.43900
N399        N  0.87509813  0.78208501  0.78451274    -0.34100
N400        N  0.88697806  0.76080453  0.76359047    -0.28400
C401        C  0.90767124  0.76132461  0.77669180    -0.04500
C402        C  0.90935964  0.78424528  0.80718017     0.07700
C403        C  0.88824779  0.79677598  0.81161087     0.01500
H404        H  0.92067192  0.74635226  0.76414858     0.09200
H405        H  0.88302559  0.81606102  0.83196841     0.08200
N406        N  0.86371936  0.71037338  0.66583746    -0.35600
N407        N  0.84379314  0.71784218  0.65374549    -0.27800
C408        C  0.83861395  0.69830568  0.62301102    -0.03000
C409        C  0.85629716  0.67781498  0.61492376     0.05600
C410        C  0.87204333  0.68612020  0.64253409     0.03700
H411        H  0.82300873  0.69869693  0.60800223     0.08800
H412        H  0.88796259  0.67460458  0.64625782     0.07600
N413        N  0.80311327  0.91373607  0.30901048    -0.26800
N414        N  0.80898721  0.90247440  0.27440727    -0.34600
C415        C  0.79123678  0.88830016  0.25704478     0.01600
C416        C  0.77365131  0.89036414  0.28243910     0.07600
C417        C  0.78183290  0.90657948  0.31497759    -0.05500
H418        H  0.79104811  0.87784103  0.22797217     0.08300
H419        H  0.77271382  0.91440802  0.34033384     0.09500
Cu420      Cu  0.84104072  0.90811433  0.25367210     0.44200
Cu421      Cu  0.82279238  0.94239313  0.34530250     0.42000
Cu422      Cu  0.87652567  0.96249852  0.31769840     0.43900
N423        N  0.87454035  0.91740395  0.24518202    -0.34100
N424        N  0.88666587  0.93706905  0.26817085    -0.28400
C425        C  0.90746664  0.93686964  0.25577210    -0.04500
C426        C  0.90888273  0.91587974  0.22356404     0.07700
C427        C  0.88758371  0.90413182  0.21746209     0.01500
H428        H  0.92062055  0.95098888  0.26970426     0.09200
H429        H  0.88206036  0.88651491  0.19524696     0.08200
N430        N  0.86277176  0.98263391  0.36756066    -0.35600
N431        N  0.84238290  0.97496168  0.37722270    -0.27800
C432        C  0.83681134  0.99263938  0.40896625    -0.03000
C433        C  0.85465099  0.01231526  0.42016101     0.05600
C434        C  0.87095147  0.00526673  0.39341627     0.03700
H435        H  0.82078667  0.99166568  0.42239082     0.08800
H436        H  0.88716422  0.01668437  0.39196856     0.07600
C437        C  0.95080598  0.81389668  0.88428910     0.03700
C438        C  0.93057503  0.80685063  0.86555781    -0.12500
C439        C  0.93008479  0.79426628  0.82731034     0.01200
C440        C  0.94995398  0.78972795  0.80772365    -0.11000
C441        C  0.97023127  0.79566780  0.82579101     0.03700
C442        C  0.97057379  0.80809748  0.86398501    -0.10400
H443        H  0.91528701  0.81042563  0.88093897     0.09200
H444        H  0.94958866  0.78165650  0.77774841     0.06800
H445        H  0.98625657  0.81238324  0.87788239     0.06600
C446        C  0.94873226  0.89021033  0.14335477     0.03700
C447        C  0.92895462  0.89594373  0.16363923    -0.12500
C448        C  0.92928088  0.90753979  0.20217035     0.01200
C449        C  0.94950302  0.91261408  0.22060046    -0.11000
C450        C  0.96939193  0.90847871  0.20094672     0.03700
C451        C  0.96894068  0.89679501  0.16232612    -0.10400
H452        H  0.91328621  0.89222290  0.14949908     0.09200
H453        H  0.94973340  0.91982189  0.25085260     0.06800
H454        H  0.98423344  0.89341214  0.14690685     0.06600
N455        N  0.09440661  0.79246601  0.71099761    -0.26800
N456        N  0.08954810  0.80172466  0.74690155    -0.34600
C457        C  0.10798444  0.81364212  0.76412414     0.01600
C458        C  0.12500644  0.81203747  0.73755093     0.07600
C459        C  0.11575745  0.79859403  0.70426526    -0.05500
H460        H  0.10904310  0.82201701  0.79400963     0.08300
H461        H  0.12415505  0.79180331  0.67775868     0.09500
Cu462      Cu  0.05814100  0.79615296  0.77076837     0.44200
Cu463      Cu  0.07366728  0.76647205  0.67378458     0.42000
Cu464      Cu  0.02255632  0.74157277  0.70966849     0.43900
N465        N  0.02488841  0.78649337  0.78185100    -0.34100
N466        N  0.01270422  0.76648588  0.75941614    -0.28400
C467        C  0.99202524  0.76628842  0.77231742    -0.04500
C468        C  0.99066757  0.78741141  0.80438193     0.07700
C469        C  0.01196192  0.79962698  0.80988644     0.01500
H470        H  0.97889868  0.75190296  0.75866813     0.09200
H471        H  0.01749747  0.81758119  0.83174218     0.08200
N472        N  0.03458550  0.72205565  0.65836252    -0.35600
N473        N  0.05385602  0.73194514  0.64485570    -0.27800
C474        C  0.05842542  0.71415541  0.61263937    -0.03000
C475        C  0.04109482  0.69209755  0.60536907     0.05600
C476        C  0.02615262  0.69777564  0.63486054     0.03700
H477        H  0.07354390  0.71640470  0.59638086     0.08800
H478        H  0.01073798  0.68453721  0.63965920     0.07600
N479        N  0.09533153  0.92224257  0.30895093    -0.26800
N480        N  0.08958476  0.90829909  0.27541899    -0.34600
C481        C  0.10708940  0.89182401  0.26088553     0.01600
C482        C  0.12434009  0.89537438  0.28696073     0.07600
C483        C  0.11621544  0.91466061  0.31700291    -0.05500
H484        H  0.10740134  0.87898896  0.23308282     0.08300
H485        H  0.12516547  0.92433896  0.34189201     0.09500
Cu486      Cu  0.05810835  0.91318015  0.25185879     0.44200
Cu487      Cu  0.07661816  0.95484666  0.34131609     0.42000
Cu488      Cu  0.02253820  0.96629122  0.31513463     0.43900
N489        N  0.02458958  0.92102372  0.24263357    -0.34100
N490        N  0.01246397  0.93997893  0.26588363    -0.28400
C491        C  0.99162332  0.93887887  0.25373677    -0.04500
C492        C  0.99008457  0.91795494  0.22143349     0.07700
C493        C  0.01144737  0.90727063  0.21493085     0.01500
H494        H  0.97851450  0.95238608  0.26796496     0.09200
H495        H  0.01690936  0.88991050  0.19261644     0.08200
N496        N  0.03606983  0.99200937  0.36209522    -0.35600
N497        N  0.05700810  0.98837698  0.37059214    -0.27800
C498        C  0.06250484  0.00960606  0.39961923    -0.03000
C499        C  0.04396760  0.02718157  0.41040893     0.05600
C500        C  0.02738734  0.01531940  0.38622722     0.03700
H501        H  0.07880726  0.01209781  0.41184108     0.08800
H502        H  0.01059162  0.02394356  0.38518712     0.07600
N503        N  0.59398269  0.79068071  0.80811169    -0.26800
N504        N  0.58879802  0.79959986  0.77222249    -0.34600
C505        C  0.60707624  0.81159511  0.75456210     0.01600
C506        C  0.62427732  0.81050111  0.78098119     0.07600
C507        C  0.61529807  0.79723106  0.81448462    -0.05500
H508        H  0.60787786  0.81986032  0.72462469     0.08300
H509        H  0.62387448  0.79081920  0.84098125     0.09500
Cu510      Cu  0.55692207  0.79448132  0.75000920     0.44200
Cu511      Cu  0.57386620  0.76496947  0.84639591     0.42000
Cu512      Cu  0.52013298  0.74951342  0.81981571     0.43900
N513        N  0.52298850  0.78824154  0.74279219    -0.34100
N514        N  0.51040292  0.77246352  0.76853951    -0.28400
C515        C  0.48954447  0.77312280  0.75650787    -0.04500
C516        C  0.48846976  0.79024829  0.72137010     0.07700
C517        C  0.51013986  0.79940473  0.71347720     0.01500
H518        H  0.47626090  0.76133332  0.77249425     0.09200
H519        H  0.51614150  0.81339861  0.68854665     0.08200
N520        N  0.53326448  0.72725241  0.86899488    -0.35600
N521        N  0.55390194  0.73314386  0.87857903    -0.27800
C522        C  0.55918333  0.71379277  0.90927281    -0.03000
C523        C  0.54087316  0.69493660  0.91981101     0.05600
C524        C  0.52462438  0.70412396  0.89371710     0.03700
H525        H  0.57534548  0.71279215  0.92223876     0.08800
H526        H  0.50814972  0.69373750  0.89175400     0.07600
N527        N  0.59517792  0.92241771  0.21636104    -0.26800
N528        N  0.58937735  0.90979183  0.25050527    -0.34600
C529        C  0.60688602  0.89399255  0.26617006     0.01600
C530        C  0.62424249  0.89660756  0.24026776     0.07600
C531        C  0.61613803  0.91467933  0.20914201    -0.05500
H532        H  0.60709093  0.88209590  0.29450644     0.08300
H533        H  0.62510658  0.92318993  0.18379837     0.09500
Cu534      Cu  0.55784741  0.91567786  0.27349469     0.44200
Cu535      Cu  0.57626096  0.95322446  0.18152036     0.42000
Cu536      Cu  0.52315629  0.97057584  0.21057259     0.43900
N537        N  0.52465220  0.92578048  0.28351121    -0.34100
N538        N  0.51284181  0.94562576  0.26064617    -0.28400
C539        C  0.49207080  0.94565629  0.27317361    -0.04500
C540        C  0.49026083  0.92454796  0.30526805     0.07700
C541        C  0.51138629  0.91259243  0.31129513     0.01500
H542        H  0.47910067  0.95963385  0.25905801     0.09200
H543        H  0.51652321  0.89447336  0.33308701     0.08200
N544        N  0.53641679  0.99289338  0.16113012    -0.35600
N545        N  0.55682828  0.98661276  0.15096857    -0.27800
C546        C  0.56220233  0.00592930  0.12017740    -0.03000
C547        C  0.54416361  0.02517363  0.11010941     0.05600
C548        C  0.52800075  0.01614356  0.13655090     0.03700
H549        H  0.57819521  0.00633824  0.10660411     0.08800
H550        H  0.51173208  0.02674161  0.13879967     0.07600
C551        C  0.44926352  0.81324466  0.63839417     0.03700
C552        C  0.46883787  0.80861060  0.65986371    -0.12500
C553        C  0.46818636  0.79648509  0.69825999     0.01200
C554        C  0.44772803  0.78933208  0.71501629    -0.11000
C555        C  0.42814617  0.79260599  0.69417946     0.03700
C556        C  0.42893871  0.80505653  0.65596647    -0.10400
H557        H  0.48457918  0.81413041  0.64687612     0.09200
H558        H  0.44685032  0.78142406  0.74496022     0.06800
H559        H  0.41380065  0.80782986  0.63980608     0.06600
C560        C  0.44832039  0.89637539  0.38192332     0.03700
C561        C  0.46865286  0.90359852  0.36379384    -0.12500
C562        C  0.46941289  0.91499181  0.32509510     0.01200
C563        C  0.44972532  0.91825466  0.30448306    -0.11000
C564        C  0.42932060  0.91231913  0.32191038     0.03700
C565        C  0.42871041  0.90109394  0.36062331    -0.10400
H566        H  0.48381540  0.90082692  0.37987183     0.09200
H567        H  0.45034249  0.92523263  0.27419621     0.06800
H568        H  0.41295246  0.89654713  0.37402409     0.06600
N569        N  0.30243869  0.91831242  0.21494118    -0.26800
N570        N  0.30871267  0.90713370  0.24940458    -0.34600
C571        C  0.29118929  0.89297576  0.26730632     0.01600
C572        C  0.27335025  0.89492395  0.24242675     0.07600
C573        C  0.28110963  0.91105149  0.20959736    -0.05500
H574        H  0.29135242  0.88249199  0.29635723     0.08300
H575        H  0.27168830  0.91871144  0.18446761     0.09500
Cu576      Cu  0.34093972  0.91224536  0.26954819     0.44200
Cu577      Cu  0.32157199  0.94695643  0.17794213     0.42000
Cu578      Cu  0.37649003  0.96217199  0.20269142     0.43900
N579        N  0.37462745  0.92016105  0.27735367    -0.34100
N580        N  0.38689808  0.93806955  0.25294508    -0.28400
C581        C  0.40772323  0.93806563  0.26535050    -0.04500
C582        C  0.40902013  0.91907125  0.29919067     0.07700
C583        C  0.38759061  0.90821705  0.30605637     0.01500
H584        H  0.42088984  0.95135680  0.25056305     0.09200
H585        H  0.38186174  0.89240084  0.32975688     0.08200
N586        N  0.36228103  0.98448772  0.15440790    -0.35600
N587        N  0.34140790  0.97903564  0.14607303    -0.27800
C588        C  0.33566798  0.99854318  0.11583143    -0.03000
C589        C  0.35391290  0.01700814  0.10419771     0.05600
C590        C  0.37061093  0.00738179  0.12908582     0.03700
H591        H  0.31929560  0.99964284  0.10374601     0.08800
H592        H  0.38720618  0.01741643  0.12990414     0.07600
N593        N  0.30434599  0.78912335  0.80940548    -0.26800
N594        N  0.30988624  0.80064317  0.77463832    -0.34600
C595        C  0.29212722  0.81499806  0.75819760     0.01600
C596        C  0.27482656  0.81262182  0.78414905     0.07600
C597        C  0.28322456  0.79622226  0.81625466    -0.05500
H598        H  0.29163393  0.82524583  0.72904963     0.08300
H599        H  0.27427215  0.78783872  0.84167666     0.09500
Cu600      Cu  0.34101951  0.79392296  0.75068441     0.44200
Cu601      Cu  0.32368649  0.75882358  0.84407562     0.42000
Cu602      Cu  0.37461546  0.73364834  0.80653922     0.43900
N603        N  0.37342732  0.78186845  0.73709803    -0.34100
N604        N  0.38495647  0.75960680  0.75730318    -0.28400
C605        C  0.40546523  0.75892507  0.74349367    -0.04500
C606        C  0.40733068  0.78211313  0.71333073     0.07700
C607        C  0.38656074  0.79601540  0.70977152     0.01500
H608        H  0.41835318  0.74352498  0.75580535     0.09200
H609        H  0.38170819  0.81628451  0.69036892     0.08200
N610        N  0.36213714  0.71361291  0.85769197    -0.35600
N611        N  0.34292125  0.72309161  0.87134579    -0.27800
C612        C  0.33822810  0.70495310  0.90337479    -0.03000
C613        C  0.35546524  0.68324759  0.91051912     0.05600
C614        C  0.37043892  0.68940312  0.88107739     0.03700
H615        H  0.32320193  0.70702392  0.91985149     0.08800
H616        H  0.38580846  0.67652444  0.87625571     0.07600
C617        C  0.36598631  0.57698415  0.03149979     0.30300
C618        C  0.37892615  0.59516006  0.00466640    -0.36000
C619        C  0.36781204  0.61902410  0.98164522     0.16300
C620        C  0.34560776  0.62486887  0.98527758     0.22100
C621        C  0.33269470  0.60656316  0.01174582    -0.34200
C622        C  0.34370321  0.58244760  0.03422428     0.16200
O623        O  0.37279059  0.55337435  0.05595769    -0.26200
C624        C  0.35451495  0.54343604  0.07401547     0.06000
C625        C  0.33596360  0.56058293  0.06155956    -0.31100
O626        O  0.33854126  0.64835324  0.96117402    -0.22900
C627        C  0.35635351  0.65753382  0.94144257    -0.02900
C628        C  0.37508882  0.64011277  0.95280844    -0.17300
H629        H  0.39635863  0.59086658  0.00178075     0.20700
H630        H  0.31522972  0.61067017  0.01442319     0.19100
H631        H  0.31922491  0.55763609  0.07154855     0.19000
H632        H  0.39158793  0.64267205  0.94154538     0.14900
C633        C  0.45908253  0.86790331  0.47743698     0.30300
C634        C  0.47219479  0.85855557  0.50921207    -0.38000
C635        C  0.46098718  0.84623493  0.54202710     0.16300
C636        C  0.43845770  0.84334475  0.54357661     0.22100
C637        C  0.42534139  0.85275020  0.51183122    -0.34200
C638        C  0.43655179  0.86504214  0.47900396     0.16200
O639        O  0.46611336  0.87948359  0.44361801    -0.26200
C640        C  0.44785672  0.88416840  0.42296147     0.06000
C641        C  0.42894227  0.87560010  0.44384879    -0.31100
O642        O  0.43144651  0.83130639  0.57719455    -0.22900
C643        C  0.44971498  0.82635881  0.59773726    -0.02900
C644        C  0.46861619  0.83524271  0.57699861    -0.17300
H645        H  0.48990796  0.86060407  0.50835664     0.20700
H646        H  0.40763365  0.85054030  0.51261831     0.19100
H647        H  0.41197756  0.87643494  0.43473411     0.19000
H648        H  0.48558976  0.83409841  0.58600522     0.14900
C649        C  0.55149197  0.63376157  0.99111867     0.30300
C650        C  0.56480606  0.61366429  0.01485629    -0.36000
C651        C  0.55386577  0.59015156  0.03866650     0.16300
C652        C  0.53131112  0.58686001  0.03968709     0.22100
C653        C  0.51792783  0.60685244  0.01556087    -0.34200
C654        C  0.52893729  0.63017471  0.99122153     0.16200
O655        O  0.55843952  0.65710084  0.96648349    -0.26200
C656        C  0.54017798  0.66856387  0.95015242     0.06000
C657        C  0.52125431  0.65272213  0.96430384    -0.31100
O658        O  0.52468069  0.56359288  0.06499205    -0.22900
C659        C  0.54330324  0.55167756  0.07984255    -0.02900
C660        C  0.56191907  0.56721489  0.06438017    -0.17300
H661        H  0.58250888  0.61610459  0.01464981     0.20700
H662        H  0.50022952  0.60435309  0.01568734     0.19100
H663        H  0.50439080  0.65718906  0.95602007     0.19000
H664        H  0.57893649  0.56269461  0.07156295     0.14900
C665        C  0.22048456  0.88250533  0.27947074     0.30300
C666        C  0.20385348  0.88498150  0.30734224    -0.36000
C667        C  0.18229770  0.88253699  0.29327508     0.16300
C668        C  0.17735208  0.87751457  0.25453162     0.22100
C669        C  0.19399363  0.87467533  0.22671155    -0.34200
C670        C  0.21555026  0.87769067  0.24068446     0.16200
O671        O  0.24164946  0.88747310  0.28561289    -0.26200
C672        C  0.25032605  0.88607350  0.25026752     0.06000
C673        C  0.23488269  0.87998199  0.22124196    -0.31100
O674        O  0.15612309  0.87938497  0.24733726    -0.22900
C675        C  0.14740981  0.88585311  0.28189614    -0.02900
C676        C  0.16291379  0.88782017  0.31154356    -0.17300
H677        H  0.20743833  0.89027006  0.33756016     0.20700
H678        H  0.19037237  0.87219973  0.19605171     0.19100
H679        H  0.23741874  0.87911938  0.19015589     0.19000
H680        H  0.16042534  0.89436420  0.34174065     0.14900
C681        C  0.17845509  0.82385947  0.77309233     0.30300
C682        C  0.19502734  0.82413834  0.80136020    -0.36000
C683        C  0.21662670  0.82455856  0.78743132     0.16300
C684        C  0.22167251  0.82517755  0.74836684     0.22100
C685        C  0.20508247  0.82517915  0.72006375    -0.34200
C686        C  0.18346089  0.82422164  0.73400681     0.16200
O687        O  0.15720325  0.82077416  0.77961461    -0.26200
C688        C  0.14848145  0.81893012  0.74425176     0.06000
C689        C  0.16404019  0.82100964  0.71477065    -0.31100
O690        O  0.24294927  0.82279171  0.74191004    -0.22900
C691        C  0.25158289  0.82040162  0.77730693    -0.02900
C692        C  0.23597827  0.82153695  0.80669254    -0.17300
H693        H  0.19134537  0.82262021  0.83205266     0.20700
H694        H  0.20877148  0.82443362  0.68934193     0.19100
H695        H  0.16148709  0.81915775  0.68372855     0.19000
H696        H  0.23843156  0.81876316  0.83766260     0.14900
C697        C  0.03131543  0.58545370  0.48417033     0.30300
C698        C  0.01863002  0.60098301  0.51315511    -0.36000
C699        C  0.02926663  0.62652456  0.53502108     0.16300
C700        C  0.05077208  0.63625393  0.52841198     0.22100
C701        C  0.06344104  0.62062574  0.49978236    -0.34200
C702        C  0.05294112  0.59491882  0.47838234     0.16200
O703        O  0.02494770  0.56070223  0.46053919    -0.26200
C704        C  0.04287359  0.55411767  0.43991416     0.06000
C705        C  0.06074419  0.57456399  0.44984445    -0.31100
O706        O  0.05751451  0.66058430  0.55196836    -0.22900
C707        C  0.04020969  0.66652947  0.57425580    -0.02900
C708        C  0.02211592  0.64604509  0.56518992    -0.17300
H709        H  0.00176040  0.59351250  0.51847569     0.20700
H710        H  0.08039718  0.62780046  0.49479749     0.19100
H711        H  0.07711944  0.57441938  0.43773434     0.19000
H712        H  0.00612092  0.64561369  0.57878376     0.14900
C713        C  0.93961629  0.84083957  0.98010748     0.30300
C714        C  0.92641553  0.84847831  0.01226780    -0.36000
C715        C  0.93749202  0.85996795  0.04566046     0.16300
C716        C  0.95997823  0.86367237  0.04741155     0.22100
C717        C  0.97318369  0.85601555  0.01525297    -0.34200
C718        C  0.96210297  0.84454832  0.98184245     0.16200
O719        O  0.93273116  0.82977187  0.94593705    -0.26200
C720        C  0.95104247  0.82625624  0.92524346     0.06000
C721        C  0.96983685  0.83519030  0.94639266    -0.31100
O722        O  0.96685143  0.87470009  0.08161063    -0.22900
C723        C  0.94852620  0.87820441  0.10227609    -0.02900
C724        C  0.92974383  0.86929780  0.08109794    -0.17300
H725        H  0.90873963  0.84567171  0.01132727     0.20700
H726        H  0.99086104  0.85879413  0.01620584     0.19100
H727        H  0.98681491  0.83505887  0.93738374     0.19000
H728        H  0.91276646  0.86933908  0.09011504     0.14900
C729        C  0.72026403  0.87879369  0.24681592     0.30300
C730        C  0.70343925  0.88158884  0.21924598    -0.36000
C731        C  0.68196946  0.88080997  0.23380739     0.16300
C732        C  0.67723045  0.87698767  0.27276246     0.22100
C733        C  0.69406810  0.87370082  0.30031511    -0.34200
C734        C  0.71557695  0.87509982  0.28581857     0.16200
O735        O  0.74145653  0.88273969  0.24009984    -0.26200
C736        C  0.75044578  0.88180850  0.27528238     0.06000
C737        C  0.73514193  0.87695797  0.30477127    -0.31100
O738        O  0.65609557  0.88028713  0.28024723    -0.22900
C739        C  0.64725591  0.88646735  0.24562175    -0.02900
C740        C  0.66258626  0.88683561  0.21572696    -0.17300
H741        H  0.70686732  0.88602207  0.18882173     0.20700
H742        H  0.69067838  0.87215921  0.33111127     0.19100
H743        H  0.73792401  0.87684513  0.33582308     0.19000
H744        H  0.66002120  0.89266977  0.18535207     0.14900
C745        C  0.72103658  0.81931390  0.77327047     0.30300
C746        C  0.70414123  0.82158389  0.80070829    -0.36000
C747        C  0.68270207  0.82149571  0.78579783     0.16300
C748        C  0.67810356  0.81973686  0.74656997     0.22100
C749        C  0.69500703  0.81774267  0.71911332    -0.34200
C750        C  0.71643706  0.81735988  0.73405614     0.16200
O751        O  0.74218133  0.81633600  0.78087442    -0.26200
C752        C  0.75120206  0.81223539  0.74605889     0.06000
C753        C  0.73595880  0.81273661  0.71592179    -0.31100
O754        O  0.65685423  0.81732316  0.73933193    -0.22900
C755        C  0.64776342  0.81735551  0.77441913    -0.02900
C756        C  0.66306604  0.82009080  0.80433618    -0.17300
H757        H  0.70743503  0.82193168  0.83160389     0.20700
H758        H  0.69165996  0.81516687  0.68836715     0.19100
H759        H  0.73875827  0.80895877  0.68519994     0.19000
H760        H  0.66020923  0.81939549  0.83533734     0.14900
C761        C  0.86668214  0.57235751  0.49299429     0.30300
C762        C  0.87983263  0.59304210  0.51712497    -0.36000
C763        C  0.86855810  0.61458022  0.54268574     0.16300
C764        C  0.84594308  0.61597401  0.54390737     0.22100
C765        C  0.83284319  0.59505540  0.52023341    -0.34200
C766        C  0.84408502  0.57326124  0.49518793     0.16200
O767        O  0.87361090  0.55074615  0.46636608    -0.26200
C768        C  0.85515921  0.53746419  0.45181485     0.06000
C769        C  0.83633823  0.55042531  0.46881353    -0.31100
O770        O  0.83878557  0.63843464  0.56916250    -0.22900
C771        C  0.85700511  0.65134995  0.58480473    -0.02900
C772        C  0.87606537  0.63742824  0.56960773    -0.17300
H773        H  0.89756686  0.59247338  0.51596638     0.20700
H774        H  0.81510623  0.59579993  0.52119281     0.19100
H775        H  0.81937604  0.54449487  0.46206501     0.19000
H776        H  0.89291632  0.64359425  0.57694303     0.14900
loop_ 
_geom_bond_atom_site_label_1 
_geom_bond_atom_site_label_2 
_geom_bond_distance 
_geom_bond_site_symmetry_2 
_ccdc_geom_bond_type 
N1            N2   1.323       .  A
N1            C5   1.340       .  A
N1           Cu9   2.055       .  S
N2            C3   1.351       .  A
N2           Cu8   2.099       .  S
C3            C4   1.388       .  A
C3            H6   1.082       .  S
C4            C5   1.378       .  A
C4          C364   1.472       .  S
C5            H7   1.082       .  S
Cu8          N11   2.099       .  S
Cu9          N19   2.055       .  S
Cu10         N12   2.077       .  S
Cu10         N18   2.075       .  S
N11          N12   1.324       .  A
N11          C15   1.354       .  A
N12          C13   1.339       .  A
C13          C14   1.385       .  A
C13          H16   1.082       .  S
C14          C15   1.391       .  A
C14          C51   1.489       .  S
C15          H17   1.082       .  S
N18          N19   1.319       .  A
N18          C22   1.348       .  A
N19          C20   1.342       .  A
C20          C21   1.380       .  A
C20          H23   1.082       .  S
C21          C22   1.386       .  A
C21         C383   1.468       .  S
C22          H24   1.082       .  S
N25          N26   1.322       .  A
N25          C29   1.341       .  A
N25         Cu33   2.057       .  S
N26          C27   1.350       .  A
N26         Cu32   2.091       .  S
C27          C28   1.388       .  A
C27          H30   1.082       .  S
C28          C29   1.378       .  A
C28         C348   1.471       .  S
C29          H31   1.082       .  S
Cu32         N35   2.092       .  S
Cu33         N43   2.056       .  S
Cu34         N36   2.074       .  S
Cu34         N42   2.072       .  S
N35          N36   1.324       .  A
N35          C39   1.351       .  A
N36          C37   1.339       .  A
C37          C38   1.384       .  A
C37          H40   1.081       .  S
C38          C39   1.389       .  A
C38          C60   1.486       .  S
C39          H41   1.082       .  S
N42          N43   1.319       .  A
N42          C46   1.348       .  A
N43          C44   1.340       .  A
C44          C45   1.381       .  A
C44          H47   1.082       .  S
C45          C46   1.386       .  A
C45         C768   1.470       .  S
C46          H48   1.082       .  S
C49          C50   1.415       .  A
C49          C54   1.415       .  A
C49         C332   1.491       .  S
C50          C51   1.407       .  A
C50          H55   1.083       .  S
C51          C52   1.400       .  A
C52          C53   1.400       .  A
C52          H56   1.080       .  S
C53          C54   1.403       .  A
C53          C80   1.487       .  S
C54          H57   1.080       .  S
C58          C59   1.414       .  A
C58          C63   1.415       .  A
C58         C335   1.491       .  S
C59          C60   1.403       .  A
C59          H64   1.080       .  S
C60          C61   1.398       .  A
C61          C62   1.400       .  A
C61          H65   1.079       .  S
C62          C63   1.407       .  A
C62         C104   1.488       .  S
C63          H66   1.083       .  S
N67          N68   1.323       .  A
N67          C71   1.342       .  A
N67         Cu75   2.061       .  S
N68          C69   1.349       .  A
N68         Cu74   2.094       .  S
C69          C70   1.387       .  A
C69          H72   1.082       .  S
C70          C71   1.379       .  A
C70         C300   1.471       .  S
C71          H73   1.082       .  S
Cu74         N77   2.094       .  S
Cu75         N85   2.060       .  S
Cu76         N78   2.065       .  S
Cu76         N84   2.064       .  S
N77          N78   1.323       .  A
N77          C81   1.352       .  A
N78          C79   1.337   1_455  A
C79          C80   1.383       .  A
C79          H82   1.081       .  S
C80          C81   1.392   1_655  A
C81          H83   1.082       .  S
N84          N85   1.319       .  A
N84          C88   1.347       .  A
N85          C86   1.342       .  A
C86          C87   1.381       .  A
C86          H89   1.082       .  S
C87          C88   1.385       .  A
C87         C319   1.468       .  S
C88          H90   1.082       .  S
N91          N92   1.323       .  A
N91          C95   1.339       .  A
N91         Cu99   2.052       .  S
N92          C93   1.350       .  A
N92         Cu98   2.092       .  S
C93          C94   1.387       .  A
C93          H96   1.082       .  S
C94          C95   1.377       .  A
C94         C287   1.469       .  S
C95          H97   1.082       .  S
Cu98        N101   2.093       .  S
Cu99        N109   2.052       .  S
Cu100       N102   2.074       .  S
Cu100       N108   2.071       .  S
N101        N102   1.324       .  A
N101        C105   1.353       .  A
N102        C103   1.337   1_455  A
C103        C104   1.385       .  A
C103        H106   1.081       .  S
C104        C105   1.390   1_655  A
C105        H107   1.082       .  S
N108        N109   1.318       .  A
N108        C112   1.348       .  A
N109        C110   1.341       .  A
C110        C111   1.381       .  A
C110        H113   1.082       .  S
C111        C112   1.385       .  A
C111        C704   1.468       .  S
C112        H114   1.082       .  S
N115        N116   1.323       .  A
N115        C119   1.340       .  A
N115       Cu123   2.059       .  S
N116        C117   1.351       .  A
N116       Cu122   2.095       .  S
C117        C118   1.388       .  A
C117        H120   1.082       .  S
C118        C119   1.378       .  A
C118        C367   1.472       .  S
C119        H121   1.082       .  S
Cu122       N125   2.095       .  S
Cu123       N133   2.059       .  S
Cu124       N126   2.071       .  S
Cu124       N132   2.069       .  S
N125        N126   1.323       .  A
N125        C129   1.352       .  A
N126        C127   1.337       .  A
C127        C128   1.386       .  A
C127        H130   1.080       .  S
C128        C129   1.393       .  A
C128        C165   1.491       .  S
C129        H131   1.081       .  S
N132        N133   1.318       .  A
N132        C136   1.348       .  A
N133        C134   1.342       .  A
C134        C135   1.382       .  A
C134        H137   1.082       .  S
C135        C136   1.387       .  A
C135        C268   1.471       .  S
C136        H138   1.082       .  S
N139        N140   1.323       .  A
N139        C143   1.340       .  A
N139       Cu147   2.062       .  S
N140        C141   1.351       .  A
N140       Cu146   2.095       .  S
C141        C142   1.388       .  A
C141        H144   1.082       .  S
C142        C143   1.379       .  A
C142        C351   1.473       .  S
C143        H145   1.082       .  S
Cu146       N149   2.095       .  S
Cu147       N157   2.062       .  S
Cu148       N150   2.078       .  S
Cu148       N156   2.076       .  S
N149        N150   1.324       .  A
N149        C153   1.353       .  A
N150        C151   1.338       .  A
C151        C152   1.385       .  A
C151        H154   1.081       .  S
C152        C153   1.390       .  A
C152        C174   1.488       .  S
C153        H155   1.082       .  S
N156        N157   1.319       .  A
N156        C160   1.349       .  A
N157        C158   1.342       .  A
C158        C159   1.384       .  A
C158        H161   1.082       .  S
C159        C160   1.386       .  A
C159        C659   1.473       .  S
C160        H162   1.082       .  S
C163        C164   1.416       .  A
C163        C168   1.414       .  A
C163        C255   1.492       .  S
C164        C165   1.406       .  A
C164        H169   1.079       .  S
C165        C166   1.401       .  A
C166        C167   1.399       .  A
C166        H170   1.078       .  S
C167        C168   1.405       .  A
C167        C218   1.485       .  S
C168        H171   1.083       .  S
C172        C173   1.415       .  A
C172        C177   1.415       .  A
C172        C252   1.493       .  S
C173        C174   1.406       .  A
C173        H178   1.083       .  S
C174        C175   1.400       .  A
C175        C176   1.399       .  A
C175        H179   1.079       .  S
C176        C177   1.405       .  A
C176        C194   1.489       .  S
C177        H180   1.080       .  S
N181        N182   1.323       .  A
N181        C185   1.340       .  A
N181       Cu189   2.055       .  S
N182        C183   1.349       .  A
N182       Cu188   2.090       .  S
C183        C184   1.386       .  A
C183        H186   1.082       .  S
C184        C185   1.378       .  A
C184        C284   1.468       .  S
C185        H187   1.082       .  S
Cu188       N191   2.090       .  S
Cu189       N199   2.055       .  S
Cu190       N192   2.074       .  S
Cu190       N198   2.072       .  S
N191        N192   1.323       .  A
N191        C195   1.351       .  A
N192        C193   1.339       .  A
C193        C194   1.386       .  A
C193        H196   1.081       .  S
C194        C195   1.390       .  A
C195        H197   1.082       .  S
N198        N199   1.319       .  A
N198        C202   1.348       .  A
N199        C200   1.340       .  A
C200        C201   1.381       .  A
C200        H203   1.082       .  S
C201        C202   1.385       .  A
C201        C624   1.468       .  S
C202        H204   1.082       .  S
N205        N206   1.323       .  A
N205        C209   1.341       .  A
N205       Cu213   2.062       .  S
N206        C207   1.349       .  A
N206       Cu212   2.090       .  S
C207        C208   1.386       .  A
C207        H210   1.082       .  S
C208        C209   1.380       .  A
C208        C303   1.471       .  S
C209        H211   1.082       .  S
Cu212       N215   2.090       .  S
Cu213       N223   2.062       .  S
Cu214       N216   2.074       .  S
Cu214       N222   2.072       .  S
N215        N216   1.323       .  A
N215        C219   1.352       .  A
N216        C217   1.339       .  A
C217        C218   1.385       .  A
C217        H220   1.082       .  S
C218        C219   1.389       .  A
C219        H221   1.082       .  S
N222        N223   1.320       .  A
N222        C226   1.347       .  A
N223        C224   1.342       .  A
C224        C225   1.381       .  A
C224        H227   1.082       .  S
C225        C226   1.385       .  A
C225        C239   1.468       .  S
C226        H228   1.082       .  S
C229        C234   1.380       .  A
C229        C230   1.406       .  A
C229        O235   1.321       .  A
C230        C231   1.405   1_554  A
C230        H241   1.082       .  S
C231        C240   1.364       .  A
C231        C232   1.381       .  A
C232        C233   1.399   1_556  A
C232        O238   1.315       .  A
C233        C234   1.398       .  A
C233        H242   1.082       .  S
C234        C237   1.356       .  A
O235        C236   1.332       .  A
C236        C237   1.389       .  A
C236        C589   1.468       .  S
C237        H243   1.082       .  S
O238        C239   1.329       .  A
C239        C240   1.392       .  A
C240        H244   1.082       .  S
C245        C250   1.378       .  A
C245        C246   1.405       .  A
C245        O251   1.321       .  A
C246        C247   1.405       .  A
C246        H257   1.082       .  S
C247        C256   1.362       .  A
C247        C248   1.378       .  A
C248        C249   1.405       .  A
C248        O254   1.321       .  A
C249        C250   1.405       .  A
C249        H258   1.082       .  S
C250        C253   1.362       .  A
O251        C252   1.334       .  A
C252        C253   1.398       .  A
C253        H259   1.081       .  S
O254        C255   1.334       .  A
C255        C256   1.398       .  A
C256        H260   1.081       .  S
C261        C266   1.381       .  A
C261        C262   1.400   1_556  A
C261        O267   1.316       .  A
C262        C263   1.399       .  A
C262        H273   1.082       .  S
C263        C272   1.357       .  A
C263        C264   1.380       .  A
C264        C265   1.408       .  A
C264        O270   1.323       .  A
C265        C266   1.407   1_554  A
C265        H274   1.082       .  S
C266        C269   1.367       .  A
O267        C268   1.329       .  A
C268        C269   1.393       .  A
C269        H275   1.082       .  S
O270        C271   1.333       .  A
C271        C272   1.389       .  A
C271        C547   1.473       .  S
C272        H276   1.082       .  S
C277        C282   1.381       .  A
C277        C278   1.401       .  A
C277        O283   1.319       .  A
C278        C279   1.402       .  A
C278        H289   1.083       .  S
C279        C288   1.357       .  A
C279        C280   1.381       .  A
C280        C281   1.402       .  A
C280        O286   1.320       .  A
C281        C282   1.402       .  A
C281        H290   1.082       .  S
C282        C285   1.359       .  A
O283        C284   1.329       .  A
C284        C285   1.391       .  A
C285        H291   1.083       .  S
O286        C287   1.330       .  A
C287        C288   1.392       .  A
C288        H292   1.082       .  S
C293        C298   1.381       .  A
C293        C294   1.402       .  A
C293        O299   1.319       .  A
C294        C295   1.402       .  A
C294        H305   1.082       .  S
C295        C304   1.358       .  A
C295        C296   1.381       .  A
C296        C297   1.403       .  A
C296        O302   1.320       .  A
C297        C298   1.404       .  A
C297        H306   1.082       .  S
C298        C301   1.360       .  A
O299        C300   1.330       .  A
C300        C301   1.392       .  A
C301        H307   1.082       .  S
O302        C303   1.331       .  A
C303        C304   1.391       .  A
C304        H308   1.082       .  S
C309        C314   1.381       .  A
C309        C310   1.406       .  A
C309        O315   1.321       .  A
C310        C311   1.405       .  A
C310        H321   1.082       .  S
C311        C320   1.365       .  A
C311        C312   1.381       .  A
C312        C313   1.399       .  A
C312        O318   1.314       .  A
C313        C314   1.398       .  A
C313        H322   1.082       .  S
C314        C317   1.356       .  A
O315        C316   1.332       .  A
C316        C317   1.388       .  A
C316        C499   1.468       .  S
C317        H323   1.082       .  S
O318        C319   1.328       .  A
C319        C320   1.393       .  A
C320        H324   1.082       .  S
C325        C330   1.378       .  A
C325        C326   1.404   1_556  A
C325        O331   1.320       .  A
C326        C327   1.404       .  A
C326        H337   1.082       .  S
C327        C336   1.361       .  A
C327        C328   1.378       .  A
C328        C329   1.404       .  A
C328        O334   1.321       .  A
C329        C330   1.405   1_554  A
C329        H338   1.082       .  S
C330        C333   1.361       .  A
O331        C332   1.334       .  A
C332        C333   1.398       .  A
C333        H339   1.081       .  S
O334        C335   1.334       .  A
C335        C336   1.398       .  A
C336        H340   1.081       .  S
C341        C346   1.381       .  A
C341        C342   1.401       .  A
C341        O347   1.320       .  A
C342        C343   1.402       .  A
C342        H353   1.083       .  S
C343        C352   1.357       .  A
C343        C344   1.381       .  A
C344        C345   1.403       .  A
C344        O350   1.322       .  A
C345        C346   1.404       .  A
C345        H354   1.082       .  S
C346        C349   1.360       .  A
O347        C348   1.330       .  A
C348        C349   1.392       .  A
C349        H355   1.082       .  S
O350        C351   1.331       .  A
C351        C352   1.392       .  A
C352        H356   1.082       .  S
C357        C362   1.381       .  A
C357        C358   1.402       .  A
C357        O363   1.321       .  A
C358        C359   1.403       .  A
C358        H369   1.083       .  S
C359        C368   1.358       .  A
C359        C360   1.381       .  A
C360        C361   1.402       .  A
C360        O366   1.321       .  A
C361        C362   1.403       .  A
C361        H370   1.082       .  S
C362        C365   1.359       .  A
O363        C364   1.330       .  A
C364        C365   1.392       .  A
C365        H371   1.082       .  S
O366        C367   1.330       .  A
C367        C368   1.392       .  A
C368        H372   1.082       .  S
C373        C378   1.380       .  A
C373        C374   1.405       .  A
C373        O379   1.321       .  A
C374        C375   1.405       .  A
C374        H385   1.082       .  S
C375        C384   1.364       .  A
C375        C376   1.381       .  A
C376        C377   1.400       .  A
C376        O382   1.316       .  A
C377        C378   1.399       .  A
C377        H386   1.082       .  S
C378        C381   1.356       .  A
O379        C380   1.332       .  A
C380        C381   1.390       .  A
C380        C433   1.470       .  S
C381        H387   1.082       .  S
O382        C383   1.329       .  A
C383        C384   1.392       .  A
C384        H388   1.082       .  S
N389        N390   1.323       .  A
N389        C393   1.340       .  A
N389       Cu397   2.055       .  S
N390        C391   1.351       .  A
N390       Cu396   2.099       .  S
C391        C392   1.388       .  A
C391        H394   1.082       .  S
C392        C393   1.378       .  A
C392        C752   1.472       .  S
C393        H395   1.082       .  S
Cu396       N399   2.099       .  S
Cu397       N407   2.055       .  S
Cu398       N400   2.077       .  S
Cu398       N406   2.075       .  S
N399        N400   1.324       .  A
N399        C403   1.354       .  A
N400        C401   1.339       .  A
C401        C402   1.385       .  A
C401        H404   1.082       .  S
C402        C403   1.391       .  A
C402        C439   1.489       .  S
C403        H405   1.082       .  S
N406        N407   1.319       .  A
N406        C410   1.348       .  A
N407        C408   1.342       .  A
C408        C409   1.380       .  A
C408        H411   1.082       .  S
C409        C410   1.386       .  A
C409        C771   1.468       .  S
C410        H412   1.082       .  S
N413        N414   1.322       .  A
N413        C417   1.341       .  A
N413       Cu421   2.057       .  S
N414        C415   1.350       .  A
N414       Cu420   2.091       .  S
C415        C416   1.388       .  A
C415        H418   1.082       .  S
C416        C417   1.378       .  A
C416        C736   1.471       .  S
C417        H419   1.082       .  S
Cu420       N423   2.092       .  S
Cu421       N431   2.056       .  S
Cu422       N424   2.074       .  S
Cu422       N430   2.072       .  S
N423        N424   1.324       .  A
N423        C427   1.351       .  A
N424        C425   1.339       .  A
C425        C426   1.384       .  A
C425        H428   1.081       .  S
C426        C427   1.389       .  A
C426        C448   1.486       .  S
C427        H429   1.082       .  S
N430        N431   1.319       .  A
N430        C434   1.348   1_565  A
N431        C432   1.340       .  A
C432        C433   1.381   1_565  A
C432        H435   1.082       .  S
C433        C434   1.386       .  A
C434        H436   1.082       .  S
C437        C438   1.415       .  A
C437        C442   1.415       .  A
C437        C720   1.491       .  S
C438        C439   1.407       .  A
C438        H443   1.083       .  S
C439        C440   1.400       .  A
C440        C441   1.400       .  A
C440        H444   1.080       .  S
C441        C442   1.403       .  A
C441        C468   1.487       .  S
C442        H445   1.080       .  S
C446        C447   1.414       .  A
C446        C451   1.415       .  A
C446        C723   1.491       .  S
C447        C448   1.403       .  A
C447        H452   1.080       .  S
C448        C449   1.398       .  A
C449        C450   1.400       .  A
C449        H453   1.079       .  S
C450        C451   1.407       .  A
C450        C492   1.488       .  S
C451        H454   1.083       .  S
N455        N456   1.323       .  A
N455        C459   1.342       .  A
N455       Cu463   2.061       .  S
N456        C457   1.349       .  A
N456       Cu462   2.094       .  S
C457        C458   1.387       .  A
C457        H460   1.082       .  S
C458        C459   1.379       .  A
C458        C688   1.471       .  S
C459        H461   1.082       .  S
Cu462       N465   2.094       .  S
Cu463       N473   2.060       .  S
Cu464       N466   2.065       .  S
Cu464       N472   2.064       .  S
N465        N466   1.323       .  A
N465        C469   1.352       .  A
N466        C467   1.337   1_455  A
C467        C468   1.383       .  A
C467        H470   1.081       .  S
C468        C469   1.392   1_655  A
C469        H471   1.082       .  S
N472        N473   1.319       .  A
N472        C476   1.347       .  A
N473        C474   1.342       .  A
C474        C475   1.381       .  A
C474        H477   1.082       .  S
C475        C476   1.385       .  A
C475        C707   1.468       .  S
C476        H478   1.082       .  S
N479        N480   1.323       .  A
N479        C483   1.339       .  A
N479       Cu487   2.052       .  S
N480        C481   1.350       .  A
N480       Cu486   2.092       .  S
C481        C482   1.387       .  A
C481        H484   1.082       .  S
C482        C483   1.377       .  A
C482        C675   1.469       .  S
C483        H485   1.082       .  S
Cu486       N489   2.093       .  S
Cu487       N497   2.052       .  S
Cu488       N490   2.074       .  S
Cu488       N496   2.071       .  S
N489        N490   1.324       .  A
N489        C493   1.353       .  A
N490        C491   1.337   1_455  A
C491        C492   1.385       .  A
C491        H494   1.081       .  S
C492        C493   1.390   1_655  A
C493        H495   1.082       .  S
N496        N497   1.318       .  A
N496        C500   1.348   1_565  A
N497        C498   1.341   1_565  A
C498        C499   1.381       .  A
C498        H501   1.082       .  S
C499        C500   1.385       .  A
C500        H502   1.082       .  S
N503        N504   1.323       .  A
N503        C507   1.340       .  A
N503       Cu511   2.059       .  S
N504        C505   1.351       .  A
N504       Cu510   2.095       .  S
C505        C506   1.388       .  A
C505        H508   1.082       .  S
C506        C507   1.378       .  A
C506        C755   1.472       .  S
C507        H509   1.082       .  S
Cu510       N513   2.095       .  S
Cu511       N521   2.059       .  S
Cu512       N514   2.071       .  S
Cu512       N520   2.069       .  S
N513        N514   1.323       .  A
N513        C517   1.352       .  A
N514        C515   1.337       .  A
C515        C516   1.386       .  A
C515        H518   1.080       .  S
C516        C517   1.393       .  A
C516        C553   1.491       .  S
C517        H519   1.081       .  S
N520        N521   1.318       .  A
N520        C524   1.348       .  A
N521        C522   1.342       .  A
C522        C523   1.382       .  A
C522        H525   1.082       .  S
C523        C524   1.387       .  A
C523        C656   1.471       .  S
C524        H526   1.082       .  S
N527        N528   1.323       .  A
N527        C531   1.340       .  A
N527       Cu535   2.062       .  S
N528        C529   1.351       .  A
N528       Cu534   2.095       .  S
C529        C530   1.388       .  A
C529        H532   1.082       .  S
C530        C531   1.379       .  A
C530        C739   1.473       .  S
C531        H533   1.082       .  S
Cu534       N537   2.095       .  S
Cu535       N545   2.062       .  S
Cu536       N538   2.078       .  S
Cu536       N544   2.076       .  S
N537        N538   1.324       .  A
N537        C541   1.353       .  A
N538        C539   1.338       .  A
C539        C540   1.385       .  A
C539        H542   1.081       .  S
C540        C541   1.390       .  A
C540        C562   1.488       .  S
C541        H543   1.082       .  S
N544        N545   1.319       .  A
N544        C548   1.349   1_565  A
N545        C546   1.342   1_565  A
C546        C547   1.384       .  A
C546        H549   1.082       .  S
C547        C548   1.386       .  A
C548        H550   1.082       .  S
C551        C552   1.416       .  A
C551        C556   1.414       .  A
C551        C643   1.492       .  S
C552        C553   1.406       .  A
C552        H557   1.079       .  S
C553        C554   1.401       .  A
C554        C555   1.399       .  A
C554        H558   1.078       .  S
C555        C556   1.405       .  A
C555        C606   1.485       .  S
C556        H559   1.083       .  S
C560        C561   1.415       .  A
C560        C565   1.415       .  A
C560        C640   1.493       .  S
C561        C562   1.406       .  A
C561        H566   1.083       .  S
C562        C563   1.400       .  A
C563        C564   1.399       .  A
C563        H567   1.079       .  S
C564        C565   1.405       .  A
C564        C582   1.489       .  S
C565        H568   1.080       .  S
N569        N570   1.323       .  A
N569        C573   1.340       .  A
N569       Cu577   2.055       .  S
N570        C571   1.349       .  A
N570       Cu576   2.090       .  S
C571        C572   1.386       .  A
C571        H574   1.082       .  S
C572        C573   1.378       .  A
C572        C672   1.468       .  S
C573        H575   1.082       .  S
Cu576       N579   2.090       .  S
Cu577       N587   2.055       .  S
Cu578       N580   2.074       .  S
Cu578       N586   2.072       .  S
N579        N580   1.323       .  A
N579        C583   1.351       .  A
N580        C581   1.339       .  A
C581        C582   1.386       .  A
C581        H584   1.081       .  S
C582        C583   1.390       .  A
C583        H585   1.082       .  S
N586        N587   1.319       .  A
N586        C590   1.348   1_565  A
N587        C588   1.340       .  A
C588        C589   1.381   1_565  A
C588        H591   1.082       .  S
C589        C590   1.385       .  A
C590        H592   1.082       .  S
N593        N594   1.323       .  A
N593        C597   1.341       .  A
N593       Cu601   2.062       .  S
N594        C595   1.349       .  A
N594       Cu600   2.090       .  S
C595        C596   1.386       .  A
C595        H598   1.082       .  S
C596        C597   1.380       .  A
C596        C691   1.471       .  S
C597        H599   1.082       .  S
Cu600       N603   2.090       .  S
Cu601       N611   2.062       .  S
Cu602       N604   2.074       .  S
Cu602       N610   2.072       .  S
N603        N604   1.323       .  A
N603        C607   1.352       .  A
N604        C605   1.339       .  A
C605        C606   1.385       .  A
C605        H608   1.082       .  S
C606        C607   1.389       .  A
C607        H609   1.082       .  S
N610        N611   1.320       .  A
N610        C614   1.347       .  A
N611        C612   1.342       .  A
C612        C613   1.381       .  A
C612        H615   1.082       .  S
C613        C614   1.385       .  A
C613        C627   1.468       .  S
C614        H616   1.082       .  S
C617        C622   1.380       .  A
C617        C618   1.406       .  A
C617        O623   1.321       .  A
C618        C619   1.405   1_554  A
C618        H629   1.082       .  S
C619        C628   1.364       .  A
C619        C620   1.381       .  A
C620        C621   1.399   1_556  A
C620        O626   1.315       .  A
C621        C622   1.398       .  A
C621        H630   1.082       .  S
C622        C625   1.356       .  A
O623        C624   1.332       .  A
C624        C625   1.389       .  A
C625        H631   1.082       .  S
O626        C627   1.329       .  A
C627        C628   1.392       .  A
C628        H632   1.082       .  S
C633        C638   1.378       .  A
C633        C634   1.405       .  A
C633        O639   1.321       .  A
C634        C635   1.405       .  A
C634        H645   1.082       .  S
C635        C644   1.362       .  A
C635        C636   1.378       .  A
C636        C637   1.405       .  A
C636        O642   1.321       .  A
C637        C638   1.405       .  A
C637        H646   1.082       .  S
C638        C641   1.362       .  A
O639        C640   1.334       .  A
C640        C641   1.398       .  A
C641        H647   1.081       .  S
O642        C643   1.334       .  A
C643        C644   1.398       .  A
C644        H648   1.081       .  S
C649        C654   1.381       .  A
C649        C650   1.400   1_556  A
C649        O655   1.316       .  A
C650        C651   1.399       .  A
C650        H661   1.082       .  S
C651        C660   1.357       .  A
C651        C652   1.380       .  A
C652        C653   1.408       .  A
C652        O658   1.323       .  A
C653        C654   1.407   1_554  A
C653        H662   1.082       .  S
C654        C657   1.367       .  A
O655        C656   1.329       .  A
C656        C657   1.393       .  A
C657        H663   1.082       .  S
O658        C659   1.333       .  A
C659        C660   1.389       .  A
C660        H664   1.082       .  S
C665        C670   1.381       .  A
C665        C666   1.401       .  A
C665        O671   1.319       .  A
C666        C667   1.402       .  A
C666        H677   1.083       .  S
C667        C676   1.357       .  A
C667        C668   1.381       .  A
C668        C669   1.402       .  A
C668        O674   1.320       .  A
C669        C670   1.402       .  A
C669        H678   1.082       .  S
C670        C673   1.359       .  A
O671        C672   1.329       .  A
C672        C673   1.391       .  A
C673        H679   1.083       .  S
O674        C675   1.330       .  A
C675        C676   1.392       .  A
C676        H680   1.082       .  S
C681        C686   1.381       .  A
C681        C682   1.402       .  A
C681        O687   1.319       .  A
C682        C683   1.402       .  A
C682        H693   1.082       .  S
C683        C692   1.358       .  A
C683        C684   1.381       .  A
C684        C685   1.403       .  A
C684        O690   1.320       .  A
C685        C686   1.404       .  A
C685        H694   1.082       .  S
C686        C689   1.360       .  A
O687        C688   1.330       .  A
C688        C689   1.392       .  A
C689        H695   1.082       .  S
O690        C691   1.331       .  A
C691        C692   1.391       .  A
C692        H696   1.082       .  S
C697        C702   1.381       .  A
C697        C698   1.406       .  A
C697        O703   1.321       .  A
C698        C699   1.405       .  A
C698        H709   1.082       .  S
C699        C708   1.365       .  A
C699        C700   1.381       .  A
C700        C701   1.399       .  A
C700        O706   1.314       .  A
C701        C702   1.398       .  A
C701        H710   1.082       .  S
C702        C705   1.356       .  A
O703        C704   1.332       .  A
C704        C705   1.388       .  A
C705        H711   1.082       .  S
O706        C707   1.328       .  A
C707        C708   1.393       .  A
C708        H712   1.082       .  S
C713        C718   1.378       .  A
C713        C714   1.404   1_556  A
C713        O719   1.320       .  A
C714        C715   1.404       .  A
C714        H725   1.082       .  S
C715        C724   1.361       .  A
C715        C716   1.378       .  A
C716        C717   1.404       .  A
C716        O722   1.321       .  A
C717        C718   1.405   1_554  A
C717        H726   1.082       .  S
C718        C721   1.361       .  A
O719        C720   1.334       .  A
C720        C721   1.398       .  A
C721        H727   1.081       .  S
O722        C723   1.334       .  A
C723        C724   1.398       .  A
C724        H728   1.081       .  S
C729        C734   1.381       .  A
C729        C730   1.401       .  A
C729        O735   1.320       .  A
C730        C731   1.402       .  A
C730        H741   1.083       .  S
C731        C740   1.357       .  A
C731        C732   1.381       .  A
C732        C733   1.403       .  A
C732        O738   1.322       .  A
C733        C734   1.404       .  A
C733        H742   1.082       .  S
C734        C737   1.360       .  A
O735        C736   1.330       .  A
C736        C737   1.392       .  A
C737        H743   1.082       .  S
O738        C739   1.331       .  A
C739        C740   1.392       .  A
C740        H744   1.082       .  S
C745        C750   1.381       .  A
C745        C746   1.402       .  A
C745        O751   1.321       .  A
C746        C747   1.403       .  A
C746        H757   1.083       .  S
C747        C756   1.358       .  A
C747        C748   1.381       .  A
C748        C749   1.402       .  A
C748        O754   1.321       .  A
C749        C750   1.403       .  A
C749        H758   1.082       .  S
C750        C753   1.359       .  A
O751        C752   1.330       .  A
C752        C753   1.392       .  A
C753        H759   1.082       .  S
O754        C755   1.330       .  A
C755        C756   1.392       .  A
C756        H760   1.082       .  S
C761        C766   1.380       .  A
C761        C762   1.405       .  A
C761        O767   1.321       .  A
C762        C763   1.405       .  A
C762        H773   1.082       .  S
C763        C772   1.364       .  A
C763        C764   1.381       .  A
C764        C765   1.400       .  A
C764        O770   1.316       .  A
C765        C766   1.399       .  A
C765        H774   1.082       .  S
C766        C769   1.356       .  A
O767        C768   1.332       .  A
C768        C769   1.390       .  A
C769        H775   1.082       .  S
O770        C771   1.329       .  A
C771        C772   1.392       .  A
C772        H776   1.082       .  S
