geometry optimzed in LAMMPS
_audit_creation_date              2020-11-30 
_audit_creation_method            'lammps2cif' 
_symmetry_space_group_name_H-M    'P1' 
_symmetry_Int_Tables_number       1 
_symmetry_cell_setting            triclinic 
loop_ 
_symmetry_equiv_pos_as_xyz 
  x,y,z 
_cell_length_a                    30.0520849 
_cell_length_b                    21.925511232626196 
_cell_length_c                    24.336884709058168 
_cell_angle_alpha                 88.88375742197785 
_cell_angle_beta                  118.67299652394179 
_cell_angle_gamma                 92.38108605200729 
loop_ 
_atom_site_label 
_atom_site_type_symbol 
_atom_site_fract_x 
_atom_site_fract_y 
_atom_site_fract_z 
_atom_site_charge 
C1          C  0.60863858  0.23611531  0.48136090    -0.01900
C2          C  0.99654980  0.18206180  0.15253607    -0.01900
O3          O  0.60694300  0.14100150  0.15442748    -0.73900
O4          O  0.56203440  0.01336501  0.02129318    -0.73900
O5          O  0.61101714  0.13454393  0.04256369    -0.74000
O6          O  0.55623037  0.02503887  0.13780231    -0.74000
O7          O  0.48558027  0.07264010  0.09405344    -0.73900
O8          O  0.53650373  0.17549316  0.99407031    -0.73900
O9          O  0.48841384  0.05574928  0.48199637    -0.73900
O10         O  0.53529144  0.18798266  0.10937124    -0.74000
Ni11       Ni  0.58648440  0.07684748  0.09069288     1.25400
Ni12       Ni  0.50925718  0.12424796  0.04287663     1.25400
C13         C  0.58078727  0.18643358  0.15565930     0.88300
C14         C  0.51522130  0.01211083  0.47811351     0.88200
C15         C  0.58326927  0.17689059  0.00412269     0.88300
C16         C  0.50987749  0.02730775  0.12924992     0.88400
O17         O  0.05832134  0.11883993  0.13121188    -0.73900
O18         O  0.09669335  0.02530598  0.02415837    -0.73900
O19         O  0.05472107  0.14229857  0.01699117    -0.74000
O20         O  0.09977041  0.00794020  0.13789327    -0.74000
O21         O  0.02751487  0.95642710  0.09354761    -0.73900
O22         O  0.98002116  0.09488070  0.47299204    -0.73900
O23         O  0.02323732  0.97679106  0.97815005    -0.73900
O24         O  0.98202012  0.07821032  0.08721412    -0.74000
Ni25       Ni  0.07948559  0.07460067  0.07861205     1.25400
Ni26       Ni  0.00029233  0.02501250  0.03140362     1.25400
C27         C  0.01346299  0.11988728  0.12611779     0.88300
C28         C  0.06902636  0.98292191  0.98493162     0.88200
C29         C  0.00808115  0.14232202  0.47362998     0.88300
C30         C  0.07411747  0.95950638  0.13804210     0.88400
C31         C  0.47821424  0.46702825  0.14422048    -0.01900
C32         C  0.09714494  0.43404670  0.45960293    -0.01900
C33         C  0.09606918  0.42433004  0.20521686    -0.01900
C34         C  0.48842928  0.47001811  0.41323324    -0.01900
O35         O  0.55990591  0.42895801  0.38621363    -0.73900
O36         O  0.60452972  0.32573619  0.28244940    -0.73900
O37         O  0.55356733  0.43528076  0.25760218    -0.74000
O38         O  0.61011689  0.31872878  0.40583019    -0.74000
O39         O  0.53871276  0.26429139  0.36751356    -0.73900
O40         O  0.48341404  0.38140028  0.22289205    -0.73900
O41         O  0.53471478  0.27149619  0.25029179    -0.74300
O42         O  0.48777728  0.37878730  0.34341255    -0.74000
Ni43       Ni  0.58443358  0.37916997  0.33443158     1.25400
Ni44       Ni  0.50886922  0.32286322  0.29480549     1.25400
C45         C  0.51541173  0.42109795  0.38346008     0.88300
C46         C  0.57820136  0.27797829  0.25096173     0.88200
C47         C  0.50715936  0.42731783  0.21290274     0.88300
C48         C  0.58479357  0.27208664  0.41245385     0.88400
O49         O  0.09892476  0.35448807  0.38602257    -0.73900
O50         O  0.04982633  0.21126761  0.27081513    -0.73900
O51         O  0.09587775  0.32665559  0.27000093    -0.74000
O52         O  0.05555289  0.24237701  0.38790483    -0.74000
O53         O  0.97963448  0.27629884  0.33602734    -0.73900
O54         O  0.02578166  0.37505070  0.23035564    -0.73900
O55         O  0.97946893  0.25941992  0.21709860    -0.73900
O56         O  0.02421685  0.39158154  0.34956887    -0.74000
Ni57       Ni  0.07727908  0.28254116  0.33016785     1.25400
Ni58       Ni  0.99945036  0.32691308  0.28120648     1.25400
C59         C  0.07122694  0.39391297  0.39287625     0.88300
C60         C  0.00698927  0.21373410  0.21959124     0.88200
C61         C  0.06980205  0.37014087  0.23311526     0.88300
C62         C  0.00961982  0.24013075  0.37980432     0.88400
C63         C  0.60164577  0.22274309  0.22405071    -0.01900
C64         C  0.98680551  0.18325882  0.40843806    -0.01900
C65         C  0.85306153  0.17719245  0.39694491    -0.01500
C66         C  0.82262301  0.20272466  0.33785502     0.07100
C67         C  0.84568887  0.22609390  0.30442404    -0.07400
C68         C  0.89466755  0.21118344  0.32133472     0.04600
C69         C  0.92886250  0.19356269  0.38385652    -0.14700
C70         C  0.90595358  0.18169852  0.42257290    -0.08000
C71         C  0.76719250  0.20754189  0.30927035     0.05500
C72         C  0.74744238  0.23033684  0.34510102    -0.09100
C73         C  0.69643483  0.24383332  0.31953361     0.00500
C74         C  0.66163293  0.23263620  0.25431010     0.00400
C75         C  0.68555331  0.21824241  0.21803172    -0.12700
C76         C  0.73522324  0.19951736  0.24493066     0.00800
C77         C  0.68929355  0.28233634  0.36114005     0.40200
C78         C  0.75052929  0.16520059  0.20693212     0.36800
C79         C  0.83143860  0.13790259  0.42690271     0.36500
C80         C  0.90263628  0.20698543  0.26865138     0.37300
N81         N  0.69200275  0.31660592  0.39821015    -0.43500
N82         N  0.76279512  0.13662612  0.17731680    -0.44000
N83         N  0.90276387  0.20858411  0.22161407    -0.41300
N84         N  0.81458672  0.10393356  0.44962389    -0.42800
H85         H  0.92782038  0.16960514  0.47111941     0.13400
H86         H  0.82300745  0.24821248  0.25989970     0.09900
H87         H  0.77309946  0.24009741  0.39373365     0.10900
H88         H  0.66528717  0.21563196  0.16786331     0.16800
C89         C  0.54819092  0.05211959  0.36181096    -0.01500
C90         C  0.52451859  0.02909209  0.30140073     0.07100
C91         C  0.47365174  0.00896127  0.27422767    -0.07400
C92         C  0.44738952  0.51152247  0.30630483     0.04600
C93         C  0.47617329  0.52504084  0.36908281    -0.14700
C94         C  0.51637930  0.06813115  0.38334965    -0.08000
C95         C  0.53933185  0.06114319  0.26155038     0.05500
C96         C  0.59043452  0.05980494  0.27690279    -0.09100
C97         C  0.61501712  0.11184400  0.27085741     0.00500
C98         C  0.58636869  0.16578296  0.24692150     0.00400
C99         C  0.53287961  0.15909534  0.22072559    -0.12700
C100        C  0.50926570  0.10967086  0.22793761     0.00800
C101        C  0.66798306  0.10512652  0.29045461     0.40200
C102        C  0.45485833  0.11460781  0.20382286     0.36800
C103        C  0.60177354  0.04548759  0.40497889     0.36500
C104        C  0.39295335  0.51371155  0.27282342     0.37300
N105        N  0.70974281  0.09349626  0.30722592    -0.43500
N106        N  0.41163628  0.11961207  0.18399691    -0.44000
N107        N  0.34935767  0.51651633  0.24368198    -0.41300
N108        N  0.64419927  0.03840124  0.43964952    -0.42800
H109        H  0.53350299  0.09392770  0.42567640     0.13400
H110        H  0.45319343  0.00518632  0.22621476     0.09900
H111        H  0.61277204  0.02104767  0.30181043     0.10900
H112        H  0.50783291  0.19150803  0.18787256     0.16800
C113        C  0.06525167  0.09219527  0.37039454    -0.01500
C114        C  0.03718131  0.03740544  0.34762674     0.07100
C115        C  0.98991309  0.02785365  0.34618720    -0.07400
C116        C  0.96620026  0.07787595  0.35269741     0.04600
C117        C  0.99687594  0.13175525  0.37780736    -0.14700
C118        C  0.04940972  0.12750441  0.39934443    -0.08000
C119        C  0.05115509  0.99904704  0.31319048     0.05500
C120        C  0.10324871  0.99733148  0.33243854    -0.09100
C121        C  0.11915907  0.99855944  0.28950084     0.00500
C122        C  0.08466873  0.47907045  0.23126948     0.00400
C123        C  0.03235619  0.99137460  0.20881354    -0.12700
C124        C  0.01510975  0.99067848  0.25086904     0.00800
C125        C  0.16557790  0.03097832  0.30173915     0.40200
C126        C  0.96446072  0.96385271  0.23088342     0.36800
C127        C  0.10790355  0.11790782  0.36386153     0.36500
C128        C  0.91368644  0.06977935  0.33799063     0.37300
N129        N  0.20192054  0.05941767  0.31212146    -0.43500
N130        N  0.92451298  0.94135076  0.21431029    -0.44000
N131        N  0.87148411  0.06207057  0.32524356    -0.41300
N132        N  0.14195753  0.14040942  0.36029748    -0.42800
H133        H  0.07845837  0.15526106  0.43681418     0.13400
H134        H  0.96957406  0.98418174  0.33390424     0.09900
H135        H  0.13110071  0.01173138  0.37706827     0.10900
H136        H  0.00322243  0.48045640  0.16205812     0.16800
C137        C  0.23636802  0.38550231  0.33699559    -0.01500
C138        C  0.26825669  0.41089492  0.31532322     0.07100
C139        C  0.24618359  0.43147434  0.25430678    -0.07400
C140        C  0.19340968  0.43540968  0.21669735     0.04600
C141        C  0.15775989  0.41532656  0.23871007    -0.14700
C142        C  0.18336568  0.39196587  0.30186751    -0.08000
C143        C  0.32435216  0.42229277  0.35583448     0.05500
C144        C  0.35706822  0.37441380  0.37116124    -0.09100
C145        C  0.40925182  0.38446977  0.38963489     0.00500
C146        C  0.43305240  0.44548594  0.40316659     0.00400
C147        C  0.39857384  0.49148304  0.39749845    -0.12700
C148        C  0.34591194  0.48163930  0.36874817     0.00800
C149        C  0.42941171  0.32943259  0.38147256     0.40200
C150        C  0.31568967  0.53434564  0.34104310     0.36800
C151        C  0.25752627  0.35008513  0.39382472     0.36500
C152        C  0.18459173  0.47167821  0.16322531     0.37300
N153        N  0.43732271  0.28241351  0.36768816    -0.43500
N154        N  0.29427435  0.07761222  0.31651173    -0.44000
N155        N  0.18455821  0.50488861  0.12569456    -0.41300
N156        N  0.27557390  0.31946228  0.43788219    -0.42800
H157        H  0.16375678  0.38424431  0.32863669     0.13400
H158        H  0.27173128  0.44854305  0.23713215     0.09900
H159        H  0.33999974  0.32854412  0.35990519     0.10900
H160        H  0.41016349  0.53906409  0.40272636     0.16800
C161        C  0.34368868  0.53372605  0.03263422    -0.01500
C162        C  0.31219911  0.51210616  0.05658986     0.07100
C163        C  0.33327059  0.47666529  0.11032459    -0.07400
C164        C  0.38365956  0.45868779  0.13843155     0.04600
C165        C  0.41907385  0.48289814  0.11777809    -0.14700
C166        C  0.39438678  0.51598672  0.06001992    -0.08000
C167        C  0.25637697  0.50302660  0.01615378     0.05500
C168        C  0.24040452  0.44502613  0.99113842    -0.09100
C169        C  0.19153744  0.42151535  0.47308256     0.00500
C170        C  0.15253402  0.45981003  0.97195666     0.00400
C171        C  0.16899790  0.52233326  0.98821864    -0.12700
C172        C  0.22014293  0.54276982  0.01328281     0.00800
C173        C  0.18957177  0.35537974  0.47058707     0.40200
C174        C  0.23463457  0.10405708  0.03749225     0.36800
C175        C  0.32440452  0.57478614  0.47996525     0.36500
C176        C  0.39202086  0.41140639  0.18397698     0.37300
N177        N  0.18933198  0.30254112  0.46979298    -0.43500
N178        N  0.24612712  0.15315915  0.05723443    -0.44000
N179        N  0.39372193  0.37352529  0.21873316    -0.41300
N180        N  0.30883299  0.61003385  0.43970199    -0.42800
H181        H  0.41266154  0.52414188  0.03166877     0.13400
H182        H  0.30766546  0.45678246  0.12628929     0.09900
H183        H  0.26940776  0.41462588  0.49526043     0.10900
H184        H  0.14250496  0.05720302  0.98014755     0.16800
C185        C  0.12416623  0.23807571  0.17613996    -0.01500
C186        C  0.10998084  0.28291932  0.13106618     0.07100
C187        C  0.06568454  0.31494735  0.11533777    -0.07400
C188        C  0.02614881  0.28709489  0.12136850     0.04600
C189        C  0.03486620  0.22920487  0.14999776    -0.14700
C190        C  0.08750419  0.21626097  0.19050641    -0.08000
C191        C  0.12753642  0.28279480  0.08488746     0.05500
C192        C  0.08628630  0.28031682  0.02439878    -0.09100
C193        C  0.07120311  0.33542745  0.49367205     0.00500
C194        C  0.10804909  0.38286807  0.00720830     0.00400
C195        C  0.15649673  0.37603820  0.06089091    -0.12700
C196        C  0.16715707  0.32399934  0.09724122     0.00800
C197        C  0.01727333  0.34633921  0.45924659     0.40200
C198        C  0.21679914  0.31607354  0.14999229     0.36800
C199        C  0.17064583  0.20585550  0.19811033     0.36500
C200        C  0.98371684  0.32434784  0.10856871     0.37300
N201        N  0.97420912  0.35496267  0.43311828    -0.43500
N202        N  0.25680290  0.30898396  0.19175678    -0.44000
N203        N  0.95069668  0.35584357  0.09874215    -0.41300
N204        N  0.20749084  0.17931804  0.21527955    -0.42800
H205        H  0.09790454  0.17877046  0.22372678     0.13400
H206        H  0.05824993  0.35561578  0.08754541     0.09900
H207        H  0.05577284  0.24812930  0.51596268     0.10900
H208        H  0.18723892  0.40931895  0.07414754     0.16800
C209        C  0.53108870  0.29215693  0.03501079    -0.01500
C210        C  0.56501327  0.30266006  0.09857025     0.07100
C211        C  0.61739400  0.30978282  0.11899630    -0.07400
C212        C  0.63446766  0.30954572  0.07522011     0.04600
C213        C  0.60060530  0.28908854  0.01490173    -0.14700
C214        C  0.54922579  0.29848989  0.49384471    -0.08000
C215        C  0.54436232  0.33920048  0.12830397     0.05500
C216        C  0.49842602  0.31740672  0.12671631    -0.09100
C217        C  0.45798189  0.35659189  0.10548234     0.00500
C218        C  0.46816016  0.41755036  0.09527714     0.00400
C219        C  0.50064817  0.42265992  0.07136573    -0.12700
C220        C  0.54728335  0.39947817  0.11056694     0.00800
C221        C  0.40759511  0.33376386  0.08930204     0.40200
C222        C  0.59434654  0.42966171  0.11949890     0.36800
C223        C  0.47827354  0.27239375  0.51105684     0.36500
C224        C  0.67683488  0.35031516  0.08534444     0.37300
N225        N  0.36713100  0.31477033  0.07571063    -0.43500
N226        N  0.63245469  0.45376228  0.12917728    -0.44000
N227        N  0.71074256  0.38309455  0.09388462    -0.41300
N228        N  0.43676949  0.25466809  0.49309421    -0.42800
H229        H  0.52216224  0.29021336  0.44651824     0.13400
H230        H  0.64240054  0.32781054  0.16548857     0.09900
H231        H  0.49055673  0.26953252  0.12884052     0.10900
H232        H  0.49626755  0.46139567  0.04505968     0.16800
C233        C  0.75961954  0.23773840  0.07501021    -0.01500
C234        C  0.77260333  0.21183358  0.03234906     0.07100
C235        C  0.73216901  0.18753114  0.97687611    -0.07400
C236        C  0.68101588  0.19504190  0.46249999     0.04600
C237        C  0.66723926  0.22280796  0.00364101    -0.14700
C238        C  0.70884289  0.23504687  0.06382548    -0.08000
C239        C  0.82771335  0.20057408  0.05119039     0.05500
C240        C  0.85099752  0.15240633  0.09209705    -0.09100
C241        C  0.90395127  0.14566813  0.12108881     0.00500
C242        C  0.93659387  0.18490076  0.10832253     0.00400
C243        C  0.91090539  0.22504838  0.05729620    -0.12700
C244        C  0.85873091  0.23777870  0.03400976     0.00800
C245        C  0.92428171  0.10655539  0.17388912     0.40200
C246        C  0.83916055  0.29150832  0.99620087     0.36800
C247        C  0.79698623  0.27288610  0.12756630     0.36500
C248        C  0.64057256  0.17476773  0.40497966     0.37300
N249        N  0.93876383  0.08159413  0.22086040    -0.43500
N250        N  0.82387633  0.33525806  0.46672725    -0.44000
N251        N  0.60107100  0.16499688  0.36330698    -0.41300
N252        N  0.82620159  0.30429739  0.16720896    -0.42800
H253        H  0.70330099  0.24275007  0.10340259     0.13400
H254        H  0.73995368  0.16401397  0.44400125     0.09900
H255        H  0.82829775  0.12319889  0.10636831     0.10900
H256        H  0.93092559  0.24767646  0.03561648     0.16800
C257        C  0.60863354  0.23611452  0.98135242    -0.01900
C258        C  0.99654754  0.18205365  0.65253081    -0.01900
O259        O  0.60691590  0.14100644  0.65441167    -0.73900
O260        O  0.56201529  0.01336111  0.52129036    -0.73900
O261        O  0.61100108  0.13454249  0.54255730    -0.74000
O262        O  0.55621504  0.02504737  0.63779995    -0.74000
O263        O  0.48555963  0.07263734  0.59403889    -0.73900
O264        O  0.53649251  0.17550386  0.49406283    -0.73900
O265        O  0.48843133  0.05574482  0.98201345    -0.73900
O266        O  0.53526524  0.18798902  0.60935477    -0.74000
Ni267      Ni  0.58646397  0.07685008  0.59068463     1.25400
Ni268      Ni  0.50923725  0.12425234  0.54286180     1.25400
C269        C  0.58076056  0.18643912  0.65564274     0.88300
C270        C  0.51523890  0.01211095  0.97812334     0.88200
C271        C  0.58326029  0.17689602  0.50412089     0.88300
C272        C  0.50986243  0.02731125  0.62924627     0.88400
O273        O  0.05832366  0.11883675  0.63120273    -0.73900
O274        O  0.09670187  0.02528326  0.52416571    -0.73900
O275        O  0.05474030  0.14228730  0.51698931    -0.74000
O276        O  0.09977471  0.00793134  0.63789426    -0.74000
O277        O  0.02751735  0.95642198  0.59355063    -0.73900
O278        O  0.98000361  0.09489035  0.97299496    -0.73900
O279        O  0.02324364  0.97677298  0.47815449    -0.73900
O280        O  0.98202432  0.07820275  0.58720836    -0.74000
Ni281      Ni  0.07949442  0.07458930  0.57861183     1.25400
Ni282      Ni  0.00029977  0.02500333  0.53140247     1.25400
C283        C  0.01346515  0.11988156  0.62611052     0.88300
C284        C  0.06903412  0.98289715  0.48494157     0.88200
C285        C  0.00806169  0.14233171  0.97363035     0.88300
C286        C  0.07412044  0.95949917  0.63804387     0.88400
C287        C  0.47821406  0.46704458  0.64422037    -0.01900
C288        C  0.09713779  0.43404656  0.95959775    -0.01900
C289        C  0.09606516  0.42432988  0.70522580    -0.01900
C290        C  0.48841157  0.47001005  0.91324056    -0.01900
O291        O  0.55988876  0.42896292  0.88621130    -0.73900
O292        O  0.60451178  0.32574256  0.78244023    -0.73900
O293        O  0.55355806  0.43529614  0.75760593    -0.74000
O294        O  0.61010401  0.31873308  0.90582318    -0.74000
O295        O  0.53870172  0.26429180  0.86750496    -0.73900
O296        O  0.48340470  0.38141540  0.72289053    -0.73900
O297        O  0.53469586  0.27150410  0.75027887    -0.74300
O298        O  0.48776237  0.37878422  0.84341431    -0.74000
Ni299      Ni  0.58441913  0.37917727  0.83442811     1.25400
Ni300      Ni  0.50885518  0.32286900  0.79479985     1.25400
C301        C  0.51539585  0.42109569  0.88346237     0.88300
C302        C  0.57818248  0.27798526  0.75094966     0.88200
C303        C  0.50715219  0.42733344  0.71290347     0.88300
C304        C  0.58478328  0.27208750  0.91244523     0.88400
O305        O  0.09891539  0.35448352  0.88601780    -0.73900
O306        O  0.04981672  0.21126172  0.77081046    -0.73900
O307        O  0.09586977  0.32665061  0.76999926    -0.74000
O308        O  0.05553489  0.24237568  0.88789369    -0.74000
O309        O  0.97961473  0.27629162  0.83601067    -0.73900
O310        O  0.02577448  0.37504737  0.73035371    -0.73900
O311        O  0.97946246  0.25941727  0.71708758    -0.73900
O312        O  0.02420729  0.39157631  0.84956424    -0.74000
Ni313      Ni  0.07726747  0.28253660  0.83016230     1.25400
Ni314      Ni  0.99943928  0.32690857  0.78119793     1.25400
C315        C  0.07121826  0.39390958  0.89287102     0.88300
C316        C  0.00698224  0.21372896  0.71958367     0.88200
C317        C  0.06979555  0.37013840  0.73311649     0.88300
C318        C  0.00960085  0.24012614  0.87979023     0.88400
C319        C  0.60162399  0.22274954  0.72403369    -0.01900
C320        C  0.98679042  0.18325490  0.90842902    -0.01900
C321        C  0.85303593  0.17719172  0.89690739    -0.01500
C322        C  0.82259657  0.20269533  0.83780329     0.07100
C323        C  0.84566111  0.22602471  0.80435641    -0.07400
C324        C  0.89464740  0.21112859  0.82128840     0.04600
C325        C  0.92884117  0.19354058  0.88382312    -0.14700
C326        C  0.90592785  0.18169865  0.92253745    -0.08000
C327        C  0.76716810  0.20753438  0.80922647     0.05500
C328        C  0.74742870  0.23035559  0.84505878    -0.09100
C329        C  0.69642091  0.24384937  0.81950062     0.00500
C330        C  0.66161132  0.23264225  0.75428170     0.00400
C331        C  0.68552522  0.21823710  0.71799802    -0.12700
C332        C  0.73519006  0.19949687  0.74489101     0.00800
C333        C  0.68928066  0.28234493  0.86111294     0.40200
C334        C  0.75047700  0.16514445  0.70689490     0.36800
C335        C  0.83141450  0.13792522  0.92688329     0.36500
C336        C  0.90263455  0.20695021  0.76861853     0.37300
N337        N  0.69198611  0.31660805  0.89818613    -0.43500
N338        N  0.76272533  0.13654123  0.67728058    -0.44000
N339        N  0.90276181  0.20857444  0.72158144    -0.41300
N340        N  0.81456637  0.10397138  0.94962113    -0.42800
H341        H  0.92779337  0.16962566  0.97108975     0.13400
H342        H  0.82297949  0.24812171  0.75981889     0.09900
H343        H  0.77309240  0.24012881  0.89368674     0.10900
H344        H  0.66525637  0.21562258  0.66782993     0.16800
C345        C  0.54818588  0.05213181  0.86181933    -0.01500
C346        C  0.52452081  0.02909140  0.80141627     0.07100
C347        C  0.47365282  0.00894916  0.77423850    -0.07400
C348        C  0.44735227  0.51147865  0.80629606     0.04600
C349        C  0.47612037  0.52502220  0.86906994    -0.14700
C350        C  0.51636780  0.06814367  0.88334908    -0.08000
C351        C  0.53932642  0.06114610  0.76155957     0.05500
C352        C  0.59042771  0.05981244  0.77690680    -0.09100
C353        C  0.61500321  0.11185029  0.77084505     0.00500
C354        C  0.58635150  0.16578779  0.74690918     0.00400
C355        C  0.53286302  0.15909651  0.72072162    -0.12700
C356        C  0.50925531  0.10966978  0.72794453     0.00800
C357        C  0.66796600  0.10513078  0.79042613     0.40200
C358        C  0.45484840  0.11459904  0.70383723     0.36800
C359        C  0.60176692  0.04550535  0.90499683     0.36500
C360        C  0.39291230  0.51357821  0.77281864     0.37300
N361        N  0.70972245  0.09349373  0.80718482    -0.43500
N362        N  0.41162601  0.11959461  0.68401701    -0.44000
N363        N  0.34931094  0.51630987  0.74368617    -0.41300
N364        N  0.64419090  0.03842368  0.93967902    -0.42800
H365        H  0.53348226  0.09394816  0.92566724     0.13400
H366        H  0.45320618  0.00517887  0.72625019     0.09900
H367        H  0.61276897  0.02105928  0.80181863     0.10900
H368        H  0.50781211  0.19150703  0.68786804     0.16800
C369        C  0.06528266  0.09221694  0.87044126    -0.01500
C370        C  0.03722460  0.03742183  0.84766394     0.07100
C371        C  0.98995722  0.02784929  0.84622628    -0.07400
C372        C  0.96622582  0.07785867  0.85272231     0.04600
C373        C  0.99688558  0.13174876  0.87782545    -0.14700
C374        C  0.04942442  0.12751249  0.89938437    -0.08000
C375        C  0.05120026  0.99908643  0.81321016     0.05500
C376        C  0.10329336  0.99740709  0.83241950    -0.09100
C377        C  0.11916087  0.99861934  0.78943962     0.00500
C378        C  0.08466285  0.47906965  0.73127585     0.00400
C379        C  0.03234478  0.99134667  0.70881256    -0.12700
C380        C  0.01512995  0.99067636  0.75089744     0.00800
C381        C  0.16549928  0.03115460  0.80153611     0.40200
C382        C  0.96448763  0.96384445  0.73094890     0.36800
C383        C  0.10792598  0.11796030  0.86390923     0.36500
C384        C  0.91371766  0.06973215  0.83803440     0.37300
N385        N  0.20175535  0.05970521  0.81175386    -0.43500
N386        N  0.92454525  0.94133701  0.71440315    -0.44000
N387        N  0.87152246  0.06199858  0.82531151    -0.41300
N388        N  0.14197246  0.14048717  0.86034633    -0.42800
H389        H  0.07846092  0.15528416  0.93685082     0.13400
H390        H  0.96963412  0.98416791  0.83396641     0.09900
H391        H  0.13117003  0.01181702  0.87704075     0.10900
H392        H  0.00321671  0.48043972  0.66207271     0.16800
C393        C  0.23635410  0.38550109  0.83702448    -0.01500
C394        C  0.26824727  0.41088557  0.81535593     0.07100
C395        C  0.24617885  0.43145662  0.75433618    -0.07400
C396        C  0.19340589  0.43538738  0.71671722     0.04600
C397        C  0.15775377  0.41532175  0.73872925    -0.14700
C398        C  0.18335303  0.39197101  0.80189122    -0.08000
C399        C  0.32434269  0.42227952  0.85587357     0.05500
C400        C  0.35705862  0.37440005  0.87119814    -0.09100
C401        C  0.40924140  0.38445677  0.88966449     0.00500
C402        C  0.43304307  0.44547152  0.90320076     0.00400
C403        C  0.39856587  0.49146636  0.89754716    -0.12700
C404        C  0.34590375  0.48162465  0.86879475     0.00800
C405        C  0.42939692  0.32942553  0.88148315     0.40200
C406        C  0.31568419  0.53433245  0.84108760     0.36800
C407        C  0.25750702  0.35007836  0.89384973     0.36500
C408        C  0.18458679  0.47162638  0.66322735     0.37300
N409        N  0.43730046  0.28240999  0.86768346    -0.43500
N410        N  0.29429532  0.07762026  0.81661485    -0.44000
N411        N  0.18455541  0.50481723  0.62568411    -0.41300
N412        N  0.27555346  0.31945099  0.93790388    -0.42800
H413        H  0.16373822  0.38425487  0.82865446     0.13400
H414        H  0.27172764  0.44851273  0.73716098     0.09900
H415        H  0.33998954  0.32853085  0.85993926     0.10900
H416        H  0.41015394  0.53904747  0.90277958     0.16800
C417        C  0.34369065  0.53374154  0.53260776    -0.01500
C418        C  0.31219725  0.51212374  0.55655864     0.07100
C419        C  0.33326536  0.47668765  0.61029634    -0.07400
C420        C  0.38365262  0.45870515  0.63840586     0.04600
C421        C  0.41907395  0.48292172  0.61776786    -0.14700
C422        C  0.39439151  0.51600913  0.56000687    -0.08000
C423        C  0.25637579  0.50303972  0.51612026     0.05500
C424        C  0.24040630  0.44503456  0.49111611    -0.09100
C425        C  0.19153135  0.42151297  0.97308839     0.00500
C426        C  0.15254084  0.45980928  0.47195957     0.00400
C427        C  0.16899958  0.52233514  0.48820900    -0.12700
C428        C  0.22014090  0.54277954  0.51325251     0.00800
C429        C  0.18956050  0.35537780  0.97059289     0.40200
C430        C  0.23462926  0.10402487  0.53749962     0.36800
C431        C  0.32440254  0.57478387  0.98000271     0.36500
C432        C  0.39200169  0.41140152  0.68392578     0.37300
N433        N  0.18931686  0.30253893  0.96980145    -0.43500
N434        N  0.24611486  0.15313028  0.55723387    -0.44000
N435        N  0.39369253  0.37350203  0.71866032    -0.41300
N436        N  0.30883263  0.61004213  0.93974930    -0.42800
H437        H  0.41266973  0.52416082  0.53165911     0.13400
H438        H  0.30765625  0.45680230  0.62625364     0.09900
H439        H  0.26940543  0.41461484  0.99528637     0.10900
H440        H  0.14250163  0.05716698  0.48013465     0.16800
C441        C  0.12415559  0.23804436  0.67611997    -0.01500
C442        C  0.10997548  0.28290564  0.63106446     0.07100
C443        C  0.06568843  0.31494639  0.61535425    -0.07400
C444        C  0.02614883  0.28709326  0.62137644     0.04600
C445        C  0.03486334  0.22919932  0.64999856    -0.14700
C446        C  0.08750015  0.21625077  0.69050658    -0.08000
C447        C  0.12751932  0.28278707  0.58487648     0.05500
C448        C  0.08626422  0.28032067  0.52439274    -0.09100
C449        C  0.07121283  0.33541928  0.99367180     0.00500
C450        C  0.10805152  0.38286226  0.50720613     0.00400
C451        C  0.15650142  0.37601320  0.56087986    -0.12700
C452        C  0.16714908  0.32397725  0.59723273     0.00800
C453        C  0.01728054  0.34631796  0.95924657     0.40200
C454        C  0.21678183  0.31605193  0.65000309     0.36800
C455        C  0.17059531  0.20575744  0.69800505     0.36500
C456        C  0.98371481  0.32434545  0.60857089     0.37300
N457        N  0.97421506  0.35493393  0.93311772    -0.43500
N458        N  0.25677599  0.30896061  0.69178661    -0.44000
N459        N  0.95069310  0.35584067  0.59873934    -0.41300
N460        N  0.20740248  0.17916168  0.71508756    -0.42800
H461        H  0.09789702  0.17875590  0.72372212     0.13400
H462        H  0.05825775  0.35561878  0.58756768     0.09900
H463        H  0.05580004  0.24811883  0.01596624     0.10900
H464        H  0.18725214  0.40928125  0.57413610     0.16800
C465        C  0.53110601  0.29216952  0.53501492    -0.01500
C466        C  0.56502349  0.30267421  0.59857546     0.07100
C467        C  0.61740530  0.30979988  0.61900919    -0.07400
C468        C  0.63448775  0.30954656  0.57524055     0.04600
C469        C  0.60062490  0.28909784  0.51491621    -0.14700
C470        C  0.54920302  0.29846103  0.99383342    -0.08000
C471        C  0.54436239  0.33922603  0.62828843     0.05500
C472        C  0.49843136  0.31742712  0.62671082    -0.09100
C473        C  0.45798544  0.35660733  0.60548375     0.00500
C474        C  0.46815719  0.41756625  0.59527638     0.00400
C475        C  0.50063163  0.42268197  0.57134597    -0.12700
C476        C  0.54727177  0.39949936  0.61052907     0.00800
C477        C  0.40759715  0.33377034  0.58928365     0.40200
C478        C  0.59432892  0.42967865  0.61943526     0.36800
C479        C  0.47825994  0.27236743  0.01106429     0.36500
C480        C  0.67686588  0.35030250  0.58537649     0.37300
N481        N  0.36713082  0.31477235  0.57567422    -0.43500
N482        N  0.63243577  0.45377134  0.62909659    -0.44000
N483        N  0.71078265  0.38307040  0.59392726    -0.41300
N484        N  0.43675941  0.25463146  0.99311074    -0.42800
H485        H  0.52213883  0.29015231  0.94651350     0.13400
H486        H  0.64240641  0.32783673  0.66549918     0.09900
H487        H  0.49056731  0.26955197  0.62884050     0.10900
H488        H  0.49623754  0.46142093  0.54503817     0.16800
C489        C  0.75962201  0.23771803  0.57500532    -0.01500
C490        C  0.77260066  0.21180118  0.53234513     0.07100
C491        C  0.73216282  0.18749260  0.47687798    -0.07400
C492        C  0.68102083  0.19506794  0.96249678     0.04600
C493        C  0.66724055  0.22279153  0.50364581    -0.14700
C494        C  0.70884747  0.23503007  0.56382727    -0.08000
C495        C  0.82771010  0.20054485  0.55118107     0.05500
C496        C  0.85099702  0.15237158  0.59207989    -0.09100
C497        C  0.90395248  0.14564226  0.62107565     0.00500
C498        C  0.93659214  0.18488691  0.60831548     0.00400
C499        C  0.91090221  0.22504151  0.55729681    -0.12700
C500        C  0.85872735  0.23776556  0.53401280     0.00800
C501        C  0.92428949  0.10653625  0.67388303     0.40200
C502        C  0.83915715  0.29150542  0.49622088     0.36800
C503        C  0.79699011  0.27287976  0.62754786     0.36500
C504        C  0.64058223  0.17478434  0.90497792     0.37300
N505        N  0.93878540  0.08158916  0.72086412    -0.43500
N506        N  0.82387881  0.33525342  0.96669401    -0.44000
N507        N  0.60108251  0.16500333  0.86330617    -0.41300
N508        N  0.82620582  0.30430301  0.66717751    -0.42800
H509        H  0.70330973  0.24273643  0.60340685     0.13400
H510        H  0.73996286  0.16406289  0.94399710     0.09900
H511        H  0.82829888  0.12315617  0.60634683     0.10900
H512        H  0.93092103  0.24767850  0.53562020     0.16800
C513        C  0.60859705  0.73611897  0.48128840    -0.01900
C514        C  0.99649327  0.68197820  0.15250189    -0.01900
O515        O  0.60695915  0.64107572  0.15439262    -0.73900
O516        O  0.56208405  0.51334545  0.02133877    -0.73900
O517        O  0.61103459  0.63455064  0.04254198    -0.74000
O518        O  0.55629327  0.52506740  0.13782822    -0.74000
O519        O  0.48560573  0.57260028  0.09403125    -0.73900
O520        O  0.53649894  0.67543997  0.99401813    -0.73900
O521        O  0.48846442  0.55572048  0.48197924    -0.73900
O522        O  0.53527293  0.68797550  0.10933393    -0.74000
Ni523      Ni  0.58652068  0.57687097  0.09069802     1.25400
Ni524      Ni  0.50926716  0.62421679  0.04284700     1.25400
C525        C  0.58077836  0.68648943  0.15561056     0.88300
C526        C  0.51529634  0.51210037  0.47812582     0.88200
C527        C  0.58326705  0.67686962  0.00407861     0.88300
C528        C  0.50993328  0.52729794  0.12925823     0.88400
O529        O  0.05828900  0.61885803  0.13110119    -0.73900
O530        O  0.09674724  0.52532877  0.02412710    -0.73900
O531        O  0.05469391  0.64227809  0.01688319    -0.74000
O532        O  0.09982272  0.50798838  0.13787590    -0.74000
O533        O  0.02763235  0.45635185  0.09347895    -0.73900
O534        O  0.97998755  0.59485304  0.47296610    -0.73900
O535        O  0.02328982  0.47680947  0.97807186    -0.73900
O536        O  0.98203492  0.57810505  0.08718739    -0.74000
Ni537      Ni  0.07949795  0.57461885  0.07854521     1.25400
Ni538      Ni  0.00033514  0.52495754  0.03135326     1.25400
C539        C  0.01344231  0.61983228  0.12605654     0.88300
C540        C  0.06908632  0.48295267  0.98488369     0.88200
C541        C  0.00803134  0.64229242  0.47356434     0.88300
C542        C  0.07422064  0.45949891  0.13801128     0.88400
C543        C  0.47812398  0.96706320  0.14420239    -0.01900
C544        C  0.09706611  0.93398728  0.45961284    -0.01900
C545        C  0.09596121  0.92432539  0.20522496    -0.01900
C546        C  0.48829823  0.96998992  0.41323188    -0.01900
O547        O  0.55978452  0.92900748  0.38617131    -0.73900
O548        O  0.60447653  0.82584378  0.28241910    -0.73900
O549        O  0.55346671  0.93535283  0.25758443    -0.74000
O550        O  0.61005219  0.81879505  0.40579654    -0.74000
O551        O  0.53867220  0.76430517  0.36745235    -0.73900
O552        O  0.48333114  0.88144559  0.22287818    -0.73900
O553        O  0.53467612  0.77157801  0.25023497    -0.74300
O554        O  0.48768727  0.87876289  0.34340693    -0.74000
Ni555      Ni  0.58434831  0.87924416  0.33440354     1.25400
Ni556      Ni  0.50880661  0.82289237  0.29477111     1.25400
C557        C  0.51529791  0.92110376  0.38343592     0.88300
C558        C  0.57816583  0.77808341  0.25091126     0.88200
C559        C  0.50706475  0.92737265  0.21288711     0.88300
C560        C  0.58474625  0.77212047  0.41239931     0.88400
O561        O  0.09884667  0.85443116  0.38602788    -0.73900
O562        O  0.04974932  0.71122911  0.27078573    -0.73900
O563        O  0.09579170  0.82664951  0.26999944    -0.74000
O564        O  0.05549098  0.74231026  0.38789146    -0.74000
O565        O  0.97957233  0.77624523  0.33600804    -0.73900
O566        O  0.02567250  0.87501090  0.23032596    -0.73900
O567        O  0.97938764  0.75936039  0.21706038    -0.73900
O568        O  0.02414263  0.89153159  0.34955765    -0.74000
Ni569      Ni  0.07720278  0.78249938  0.33015434     1.25400
Ni570      Ni  0.99936859  0.82686086  0.28118366     1.25400
C571        C  0.07114849  0.89385718  0.39287844     0.88300
C572        C  0.00691244  0.71367399  0.21955638     0.88200
C573        C  0.06970287  0.87012807  0.23311178     0.88300
C574        C  0.00955697  0.74007389  0.37978057     0.88400
C575        C  0.60163928  0.72286552  0.22398958    -0.01900
C576        C  0.98672316  0.68320521  0.40837085    -0.01900
C577        C  0.85298134  0.67728570  0.39683326    -0.01500
C578        C  0.82257152  0.70280986  0.33772611     0.07100
C579        C  0.84565531  0.72609661  0.30429295    -0.07400
C580        C  0.89462690  0.71114657  0.32124197     0.04600
C581        C  0.92879804  0.69355414  0.38378413    -0.14700
C582        C  0.90587635  0.68172385  0.42248236    -0.08000
C583        C  0.76715473  0.70771811  0.30913236     0.05500
C584        C  0.74743183  0.73057644  0.34496425    -0.09100
C585        C  0.69642486  0.74405044  0.31941859     0.00500
C586        C  0.66161143  0.73282783  0.25420492     0.00400
C587        C  0.68551404  0.71842980  0.21790914    -0.12700
C588        C  0.73517376  0.69967990  0.24479453     0.00800
C589        C  0.68926657  0.78248292  0.36106006     0.40200
C590        C  0.75042519  0.66526411  0.20680077     0.36800
C591        C  0.83132433  0.63803402  0.42677501     0.36500
C592        C  0.90260913  0.70687184  0.26857529     0.37300
N593        N  0.69194934  0.81669831  0.39815840    -0.43500
N594        N  0.76261825  0.63660201  0.17716896    -0.44000
N595        N  0.90271846  0.70840230  0.22152746    -0.41300
N596        N  0.81445838  0.60408245  0.44949313    -0.42800
H597        H  0.92773240  0.66958435  0.47101746     0.13400
H598        H  0.82299197  0.74818762  0.25974908     0.09900
H599        H  0.77310082  0.74035440  0.39359050     0.10900
H600        H  0.66523037  0.71578151  0.16774455     0.16800
C601        C  0.54851819  0.55195370  0.36183237    -0.01500
C602        C  0.52474333  0.52903822  0.30136934     0.07100
C603        C  0.47388442  0.50897381  0.27427883    -0.07400
C604        C  0.44714032  0.01140302  0.30627054     0.04600
C605        C  0.47588545  0.02499384  0.36901837    -0.14700
C606        C  0.51680116  0.56799359  0.38349935    -0.08000
C607        C  0.53949380  0.56115714  0.26149887     0.05500
C608        C  0.59057659  0.55986185  0.27676722    -0.09100
C609        C  0.61513722  0.61196862  0.27081720     0.00500
C610        C  0.58645352  0.66589790  0.24693618     0.00400
C611        C  0.53297495  0.65916496  0.22078525    -0.12700
C612        C  0.50939888  0.60970410  0.22797615     0.00800
C613        C  0.66809859  0.60528719  0.29036359     0.40200
C614        C  0.45499759  0.61462763  0.20391941     0.36800
C615        C  0.60213887  0.54536979  0.40485457     0.36500
C616        C  0.39269457  0.01344296  0.27279849     0.37300
N617        N  0.70984888  0.59364672  0.30708525    -0.43500
N618        N  0.41178239  0.61964184  0.18414093    -0.44000
N619        N  0.34908896  0.01613582  0.24369355    -0.41300
N620        N  0.64459953  0.53834911  0.43940954    -0.42800
H621        H  0.53404359  0.59366349  0.42591515     0.13400
H622        H  0.45334360  0.50519699  0.22614959     0.09900
H623        H  0.61292041  0.52106475  0.30155032     0.10900
H624        H  0.50789719  0.69154990  0.18792162     0.16800
C625        C  0.06496614  0.59214256  0.37003103    -0.01500
C626        C  0.03684763  0.53739183  0.34720563     0.07100
C627        C  0.98958807  0.52784035  0.34577526    -0.07400
C628        C  0.96597202  0.57784179  0.35252790     0.04600
C629        C  0.99670719  0.63168490  0.37768029    -0.14700
C630        C  0.04921534  0.62738946  0.39912090    -0.08000
C631        C  0.05088676  0.49898003  0.31289014     0.05500
C632        C  0.10300150  0.49715738  0.33237945    -0.09100
C633        C  0.11915908  0.49833586  0.28968397     0.00500
C634        C  0.08455790  0.97906850  0.23124672     0.00400
C635        C  0.03243180  0.49142639  0.20866792    -0.12700
C636        C  0.01499228  0.49069905  0.25053321     0.00800
C637        C  0.16589958  0.53029261  0.30250503     0.40200
C638        C  0.96432638  0.46383910  0.23035367     0.36800
C639        C  0.10763910  0.61780642  0.36350843     0.36500
C640        C  0.91349973  0.56974869  0.33800733     0.37300
N641        N  0.20258193  0.55827304  0.31351045    -0.43500
N642        N  0.92436226  0.44131661  0.21360385    -0.44000
N643        N  0.87133280  0.56204206  0.32542610    -0.41300
N644        N  0.14171986  0.64024093  0.35995690    -0.42800
H645        H  0.07831207  0.65508520  0.43660300     0.13400
H646        H  0.96919436  0.48420278  0.33333907     0.09900
H647        H  0.13070666  0.51156276  0.37705164     0.10900
H648        H  0.00308850  0.98029522  0.16225319     0.16800
C649        C  0.23622944  0.88549780  0.33706143    -0.01500
C650        C  0.26814473  0.91084680  0.31540905     0.07100
C651        C  0.24608944  0.93146426  0.25440484    -0.07400
C652        C  0.19331686  0.93536739  0.21675278     0.04600
C653        C  0.15765430  0.91534097  0.23875851    -0.14700
C654        C  0.18323761  0.89205524  0.30194226    -0.08000
C655        C  0.32425005  0.92217999  0.35593595     0.05500
C656        C  0.35695451  0.87430037  0.37114204    -0.09100
C657        C  0.40914839  0.88436688  0.38964492     0.00500
C658        C  0.43296149  0.94538025  0.40326862     0.00400
C659        C  0.39849278  0.99134069  0.39772034    -0.12700
C660        C  0.34583177  0.98150777  0.36897935     0.00800
C661        C  0.42931685  0.82934485  0.38146687     0.40200
C662        C  0.31563656  0.03424541  0.34137351     0.36800
C663        C  0.25733886  0.84995624  0.39380711     0.36500
C664        C  0.18449665  0.97149848  0.16319880     0.37300
N665        N  0.43720786  0.78232796  0.36765636    -0.43500
N666        N  0.29426571  0.57765463  0.31609529    -0.44000
N667        N  0.18446441  0.00461691  0.12560462    -0.41300
N668        N  0.27534088  0.81922561  0.43778700    -0.42800
H669        H  0.16360352  0.88437171  0.32868878     0.13400
H670        H  0.27164517  0.94851269  0.23724174     0.09900
H671        H  0.33987342  0.82844163  0.35979617     0.10900
H672        H  0.41007456  0.03892059  0.40301303     0.16800
C673        C  0.34360259  0.03383463  0.03266786    -0.01500
C674        C  0.31209371  0.01207897  0.05653950     0.07100
C675        C  0.33315058  0.97656640  0.11022004    -0.07400
C676        C  0.38355092  0.95864522  0.13835382     0.04600
C677        C  0.41898626  0.98295266  0.11776478    -0.14700
C678        C  0.39430978  0.01612278  0.06005623    -0.08000
C679        C  0.25627577  0.00302304  0.01606829     0.05500
C680        C  0.24029199  0.94504121  0.99100682    -0.09100
C681        C  0.19143533  0.92147636  0.47302766     0.00500
C682        C  0.15243344  0.95980748  0.97189455     0.00400
C683        C  0.16891319  0.02231934  0.98820581    -0.12700
C684        C  0.22005499  0.04275721  0.01323934     0.00800
C685        C  0.18949079  0.85533720  0.47059539     0.40200
C686        C  0.23470561  0.60406992  0.03753591     0.36800
C687        C  0.32429031  0.07492465  0.48010034     0.36500
C688        C  0.39192108  0.91136354  0.18390374     0.37300
N689        N  0.18926420  0.80249652  0.46988151    -0.43500
N690        N  0.24617170  0.65317143  0.05728633    -0.44000
N691        N  0.39362968  0.87349222  0.21867161    -0.41300
N692        N  0.30867588  0.11022345  0.43988685    -0.42800
H693        H  0.41258273  0.02434912  0.03171428     0.13400
H694        H  0.30753107  0.95661210  0.12613068     0.09900
H695        H  0.26929777  0.91459534  0.49516229     0.10900
H696        H  0.14255902  0.55721582  0.98007048     0.16800
C697        C  0.12410843  0.73800364  0.17616523    -0.01500
C698        C  0.10993421  0.78290029  0.13114321     0.07100
C699        C  0.06565498  0.81494294  0.11545498    -0.07400
C700        C  0.02610259  0.78705623  0.12142212     0.04600
C701        C  0.03481165  0.72914286  0.15000772    -0.14700
C702        C  0.08744662  0.71619096  0.19052954    -0.08000
C703        C  0.12742917  0.78278714  0.08491317     0.05500
C704        C  0.08615315  0.78031690  0.02444099    -0.09100
C705        C  0.07112360  0.83537928  0.49371263     0.00500
C706        C  0.10798035  0.88282195  0.00719011     0.00400
C707        C  0.15643962  0.87595395  0.06084339    -0.12700
C708        C  0.16706950  0.82395160  0.09724688     0.00800
C709        C  0.01719794  0.84630540  0.45925911     0.40200
C710        C  0.21666550  0.81609361  0.15011462     0.36800
C711        C  0.17052233  0.70567253  0.19799095     0.36500
C712        C  0.98364192  0.82428104  0.10855904     0.37300
N713        N  0.97413751  0.85494969  0.43309956    -0.43500
N714        N  0.25661850  0.80904631  0.19199834    -0.44000
N715        N  0.95059549  0.85575708  0.09866586    -0.41300
N716        N  0.20730219  0.67903133  0.21502401    -0.42800
H717        H  0.09783096  0.67866774  0.22371213     0.13400
H718        H  0.05822276  0.85562090  0.08767064     0.09900
H719        H  0.05565847  0.74811992  0.51606721     0.10900
H720        H  0.18720395  0.90919528  0.07406695     0.16800
C721        C  0.53100818  0.79208397  0.03496370    -0.01500
C722        C  0.56493327  0.80269569  0.09849886     0.07100
C723        C  0.61730987  0.80987963  0.11890357    -0.07400
C724        C  0.63438281  0.80957626  0.07512713     0.04600
C725        C  0.60052394  0.78904032  0.01484295    -0.14700
C726        C  0.54908484  0.79831863  0.49375035    -0.08000
C727        C  0.54424562  0.83926669  0.12816095     0.05500
C728        C  0.49835303  0.81743968  0.12665448    -0.09100
C729        C  0.45790022  0.85659493  0.10549051     0.00500
C730        C  0.46803025  0.91756714  0.09525343     0.00400
C731        C  0.50043751  0.92270730  0.07122413    -0.12700
C732        C  0.54710064  0.89952289  0.11032693     0.00800
C733        C  0.40754006  0.83370258  0.08936723     0.40200
C734        C  0.59414591  0.92970347  0.11919482     0.36800
C735        C  0.47819387  0.77216597  0.51106702     0.36500
C736        C  0.67676429  0.85029757  0.08520529     0.37300
N737        N  0.36710509  0.81463570  0.07583015    -0.43500
N738        N  0.63226577  0.95376469  0.12886251    -0.44000
N739        N  0.71069215  0.88301860  0.09369529    -0.41300
N740        N  0.43673286  0.75429535  0.49316547    -0.42800
H741        H  0.52202496  0.78982660  0.44646556     0.13400
H742        H  0.64230868  0.82797176  0.16536918     0.09900
H743        H  0.49052325  0.76955778  0.12882054     0.10900
H744        H  0.49598544  0.96146213  0.04489684     0.16800
C745        C  0.75959729  0.73772982  0.07495497    -0.01500
C746        C  0.77256948  0.71184366  0.03227320     0.07100
C747        C  0.73212866  0.68757716  0.97678925    -0.07400
C748        C  0.68099031  0.69514924  0.46241777     0.04600
C749        C  0.66721267  0.72283489  0.00358449    -0.14700
C750        C  0.70881804  0.73506121  0.06377011    -0.08000
C751        C  0.82767033  0.70054994  0.05109781     0.05500
C752        C  0.85091864  0.65232960  0.09193676    -0.09100
C753        C  0.90386882  0.64556093  0.12094177     0.00500
C754        C  0.93654161  0.68481287  0.10824739     0.00400
C755        C  0.91087784  0.72498030  0.05723409    -0.12700
C756        C  0.85871073  0.73775004  0.03395153     0.00800
C757        C  0.92414178  0.60642508  0.17371531     0.40200
C758        C  0.83917344  0.79151110  0.99618731     0.36800
C759        C  0.79698027  0.77285106  0.12752193     0.36500
C760        C  0.64055042  0.67484567  0.40490835     0.37300
N761        N  0.93850124  0.58146009  0.22066737    -0.43500
N762        N  0.82394443  0.83534181  0.46676025    -0.44000
N763        N  0.60104601  0.66501979  0.36326136    -0.41300
N764        N  0.82621593  0.80424435  0.16716687    -0.42800
H765        H  0.70326981  0.74278649  0.10333867     0.13400
H766        H  0.73992562  0.66419903  0.44388442     0.09900
H767        H  0.82819495  0.62311044  0.10616273     0.10900
H768        H  0.93091638  0.74760179  0.03557353     0.16800
C769        C  0.60860567  0.73611354  0.98130143    -0.01900
C770        C  0.99650040  0.68198345  0.65251553    -0.01900
O771        O  0.60695790  0.64108316  0.65438239    -0.73900
O772        O  0.56208639  0.51335492  0.52133309    -0.73900
O773        O  0.61103405  0.63455942  0.54253612    -0.74000
O774        O  0.55629757  0.52507476  0.63782873    -0.74000
O775        O  0.48561141  0.57261060  0.59403312    -0.73900
O776        O  0.53649331  0.67543579  0.49400151    -0.73900
O777        O  0.48846544  0.55572044  0.98198885    -0.73900
O778        O  0.53526975  0.68797913  0.60932203    -0.74000
Ni779      Ni  0.58652176  0.57687860  0.59069239     1.25400
Ni780      Ni  0.50926595  0.62421883  0.54283769     1.25400
C781        C  0.58077389  0.68649219  0.65560053     0.88300
C782        C  0.51529338  0.51209803  0.97813105     0.88200
C783        C  0.58326302  0.67687285  0.50406749     0.88300
C784        C  0.50993891  0.52731034  0.62926342     0.88400
O785        O  0.05829214  0.61886418  0.63110343    -0.73900
O786        O  0.09675896  0.52532651  0.52414051    -0.73900
O787        O  0.05470459  0.64227221  0.51688529    -0.74000
O788        O  0.09983020  0.50799104  0.63789040    -0.74000
O789        O  0.02763582  0.45635988  0.59348895    -0.73900
O790        O  0.97998340  0.59484236  0.97295185    -0.73900
O791        O  0.02329705  0.47681827  0.47807953    -0.73900
O792        O  0.98203928  0.57810925  0.58719882    -0.74000
Ni793      Ni  0.07950623  0.57461941  0.57855415     1.25400
Ni794      Ni  0.00034065  0.52496506  0.53136361     1.25400
C795        C  0.01344683  0.61983745  0.62606500     0.88300
C796        C  0.06909506  0.48295497  0.48489284     0.88200
C797        C  0.00802235  0.64229079  0.97355745     0.88300
C798        C  0.07422346  0.45950382  0.63802332     0.88400
C799        C  0.47811994  0.96706014  0.64420956    -0.01900
C800        C  0.09705862  0.93402097  0.95959273    -0.01900
C801        C  0.09596382  0.92431891  0.70522640    -0.01900
C802        C  0.48831041  0.96998905  0.91324338    -0.01900
O803        O  0.55979676  0.92900937  0.88617908    -0.73900
O804        O  0.60447866  0.82583308  0.78242201    -0.73900
O805        O  0.55347156  0.93535122  0.75758977    -0.74000
O806        O  0.61006008  0.81879134  0.90580599    -0.74000
O807        O  0.53868050  0.76430137  0.86746388    -0.73900
O808        O  0.48333748  0.88144172  0.72288813    -0.73900
O809        O  0.53467565  0.77157001  0.75023865    -0.74300
O810        O  0.48770020  0.87876347  0.84341894    -0.74000
Ni811      Ni  0.58435571  0.87924008  0.83440957     1.25400
Ni812      Ni  0.50881385  0.82288880  0.79478109     1.25400
C813        C  0.51531088  0.92110533  0.88344601     0.88300
C814        C  0.57816372  0.77807469  0.75091096     0.88200
C815        C  0.50706824  0.92737037  0.71289489     0.88300
C816        C  0.58475474  0.77211657  0.91241083     0.88400
O817        O  0.09884146  0.85444791  0.88602679    -0.73900
O818        O  0.04975325  0.71123279  0.77080225    -0.73900
O819        O  0.09580299  0.82665210  0.77001826    -0.74000
O820        O  0.05548320  0.74232659  0.88790018    -0.74000
O821        O  0.97956423  0.77625698  0.83600866    -0.73900
O822        O  0.02567680  0.87500153  0.73032745    -0.73900
O823        O  0.97938903  0.75935867  0.71707093    -0.73900
O824        O  0.02413805  0.89154947  0.84954440    -0.74000
Ni825      Ni  0.07720312  0.78250827  0.83016604     1.25400
Ni826      Ni  0.99936725  0.82686526  0.78118421     1.25400
C827        C  0.07114318  0.89388230  0.89286441     0.88300
C828        C  0.00691692  0.71367513  0.71957036     0.88200
C829        C  0.06971075  0.87012331  0.73312147     0.88300
C830        C  0.00954709  0.74008613  0.87978319     0.88400
C831        C  0.60163063  0.72285733  0.72398043    -0.01900
C832        C  0.98671261  0.68321067  0.90836805    -0.01900
C833        C  0.85296252  0.67722692  0.89681794    -0.01500
C834        C  0.82255452  0.70277271  0.83772206     0.07100
C835        C  0.84564137  0.72609609  0.80430497    -0.07400
C836        C  0.89461545  0.71116041  0.82125076     0.04600
C837        C  0.92878498  0.69354811  0.88378523    -0.14700
C838        C  0.90585790  0.68167929  0.92247362    -0.08000
C839        C  0.76713741  0.70767509  0.80912799     0.05500
C840        C  0.74741078  0.73049952  0.84496997    -0.09100
C841        C  0.69640883  0.74399523  0.81942265     0.00500
C842        C  0.66160177  0.73281274  0.75420154     0.00400
C843        C  0.68550649  0.71844000  0.71790200    -0.12700
C844        C  0.73516280  0.69967876  0.74478328     0.00800
C845        C  0.68925936  0.78243489  0.86106589     0.40200
C846        C  0.75041368  0.66528022  0.70677863     0.36800
C847        C  0.83130299  0.63796157  0.92674846     0.36500
C848        C  0.90259683  0.70688925  0.76858279     0.37300
N849        N  0.69195233  0.81665173  0.89816846    -0.43500
N850        N  0.76260669  0.63662833  0.67714019    -0.44000
N851        N  0.90271486  0.70840999  0.72154003    -0.41300
N852        N  0.81443076  0.60400577  0.94945599    -0.42800
H853        H  0.92770996  0.66952963  0.97100614     0.13400
H854        H  0.82297891  0.74820214  0.75977052     0.09900
H855        H  0.77307576  0.74024885  0.89360368     0.10900
H856        H  0.66522337  0.71580874  0.66773663     0.16800
C857        C  0.54846048  0.55198681  0.86184568    -0.01500
C858        C  0.52471622  0.52904824  0.80139185     0.07100
C859        C  0.47385906  0.50896422  0.77427960    -0.07400
C860        C  0.44714116  0.01139533  0.80628551     0.04600
C861        C  0.47588434  0.02499296  0.86902730    -0.14700
C862        C  0.51671352  0.56802089  0.88346909    -0.08000
C863        C  0.53947916  0.56117491  0.76153946     0.05500
C864        C  0.59056149  0.55986849  0.77680837    -0.09100
C865        C  0.61511703  0.61195333  0.77080215     0.00500
C866        C  0.58643775  0.66588515  0.74691462     0.00400
C867        C  0.53295980  0.65915839  0.72076857    -0.12700
C868        C  0.50938523  0.60971775  0.72800358     0.00800
C869        C  0.66805961  0.60523678  0.79026000     0.40200
C870        C  0.45499392  0.61467081  0.70400658     0.36800
C871        C  0.60207292  0.54540785  0.90490708     0.36500
C872        C  0.39269599  0.01346069  0.77281280     0.37300
N873        N  0.70979095  0.59356619  0.80689677    -0.43500
N874        N  0.41178649  0.61970447  0.68428027    -0.44000
N875        N  0.34909163  0.01617848  0.74371712    -0.41300
N876        N  0.64452670  0.53838996  0.93949696    -0.42800
H877        H  0.53392068  0.59372536  0.92586228     0.13400
H878        H  0.45332688  0.50519599  0.72614504     0.09900
H879        H  0.61290604  0.52107834  0.80161101     0.10900
H880        H  0.50788285  0.69154330  0.68790443     0.16800
C881        C  0.06497638  0.59215227  0.87005155    -0.01500
C882        C  0.03685974  0.53739983  0.84722674     0.07100
C883        C  0.98959535  0.52785273  0.84578425    -0.07400
C884        C  0.96597001  0.57785829  0.85250856     0.04600
C885        C  0.99670320  0.63169932  0.87767259    -0.14700
C886        C  0.04921382  0.62740734  0.89912258    -0.08000
C887        C  0.05089705  0.49898716  0.81290905     0.05500
C888        C  0.10301022  0.49716948  0.83238792    -0.09100
C889        C  0.11915713  0.49834887  0.78968256     0.00500
C890        C  0.08454337  0.97905920  0.73122646     0.00400
C891        C  0.03242713  0.49142133  0.70867977    -0.12700
C892        C  0.01499617  0.49069631  0.75055392     0.00800
C893        C  0.16588361  0.53032683  0.80248061     0.40200
C894        C  0.96433696  0.46382095  0.73038864     0.36800
C895        C  0.10766168  0.61781098  0.86355242     0.36500
C896        C  0.91348327  0.56977506  0.83792728     0.37300
N897        N  0.20255141  0.55833098  0.81346724    -0.43500
N898        N  0.92438006  0.44128304  0.71365459    -0.44000
N899        N  0.87130210  0.56207580  0.82528286    -0.41300
N900        N  0.14175341  0.64024243  0.86002375    -0.42800
H901        H  0.07830634  0.65510295  0.93660911     0.13400
H902        H  0.96920382  0.48421407  0.83335525     0.09900
H903        H  0.13072187  0.51157425  0.87705793     0.10900
H904        H  0.00307042  0.98022170  0.66226628     0.16800
C905        C  0.23623485  0.88552056  0.83708433    -0.01500
C906        C  0.26815334  0.91085343  0.81542888     0.07100
C907        C  0.24609935  0.93146930  0.75442397    -0.07400
C908        C  0.19332622  0.93537126  0.71676908     0.04600
C909        C  0.15766156  0.91535391  0.73877519    -0.14700
C910        C  0.18324305  0.89208970  0.80196651    -0.08000
C911        C  0.32426141  0.92217529  0.85595465     0.05500
C912        C  0.35696279  0.87429512  0.87113597    -0.09100
C913        C  0.40915864  0.88436148  0.88964606     0.00500
C914        C  0.43297553  0.94537330  0.90328639     0.00400
C915        C  0.39850865  0.99133039  0.89775299    -0.12700
C916        C  0.34584758  0.98149942  0.86902053     0.00800
C917        C  0.42933017  0.82934012  0.88147185     0.40200
C918        C  0.31565338  0.03424276  0.84144758     0.36800
C919        C  0.25734079  0.84996590  0.89382104     0.36500
C920        C  0.18450671  0.97149703  0.66321225     0.37300
N921        N  0.43722863  0.78232394  0.86766844    -0.43500
N922        N  0.29426499  0.57764378  0.81613967    -0.44000
N923        N  0.18447463  0.00461261  0.62561622    -0.41300
N924        N  0.27534127  0.81922452  0.93779285    -0.42800
H925        H  0.16360308  0.88440995  0.82870684     0.13400
H926        H  0.27165636  0.94851479  0.73726150     0.09900
H927        H  0.33987881  0.82843865  0.85977407     0.10900
H928        H  0.41009005  0.03891009  0.90305354     0.16800
C929        C  0.34359318  0.03379986  0.53267806    -0.01500
C930        C  0.31209234  0.01205182  0.55656338     0.07100
C931        C  0.33315460  0.97655107  0.61025188    -0.07400
C932        C  0.38355375  0.95863108  0.63837927     0.04600
C933        C  0.41898301  0.98293906  0.61777969    -0.14700
C934        C  0.39430114  0.01609748  0.56006658    -0.08000
C935        C  0.25627803  0.00298452  0.51609829     0.05500
C936        C  0.24030019  0.94499879  0.49104434    -0.09100
C937        C  0.19142723  0.92151878  0.97299624     0.00500
C938        C  0.15244221  0.95976716  0.47192307     0.00400
C939        C  0.16891600  0.02228209  0.48821960    -0.12700
C940        C  0.22005545  0.04272116  0.51325705     0.00800
C941        C  0.18948805  0.85537970  0.97057551     0.40200
C942        C  0.23469976  0.60408610  0.53748623     0.36800
C943        C  0.32431279  0.07499242  0.98011726     0.36500
C944        C  0.39192757  0.91134523  0.68392724     0.37300
N945        N  0.18926495  0.80253882  0.96987172    -0.43500
N946        N  0.24616331  0.65319341  0.55722042    -0.44000
N947        N  0.39363857  0.87346556  0.71868850    -0.41300
N948        N  0.30870859  0.11032013  0.93993035    -0.42800
H949        H  0.41257034  0.02431633  0.53171889     0.13400
H950        H  0.30753881  0.95659959  0.62617004     0.09900
H951        H  0.26928763  0.91463730  0.99512006     0.10900
H952        H  0.14255749  0.55721400  0.48006175     0.16800
C953        C  0.12412715  0.73797113  0.67619101    -0.01500
C954        C  0.10996091  0.78286921  0.63117035     0.07100
C955        C  0.06569225  0.81492937  0.61549025    -0.07400
C956        C  0.02613209  0.78705370  0.62144810     0.04600
C957        C  0.03482991  0.72914193  0.65003588    -0.14700
C958        C  0.08746264  0.71617745  0.69056073    -0.08000
C959        C  0.12744721  0.78274620  0.58493196     0.05500
C960        C  0.08616432  0.78028182  0.52446264    -0.09100
C961        C  0.07111251  0.83541465  0.99369304     0.00500
C962        C  0.10798849  0.88278881  0.50721305     0.00400
C963        C  0.15644846  0.87592171  0.56086886    -0.12700
C964        C  0.16708588  0.82391017  0.59726045     0.00800
C965        C  0.01718636  0.84633864  0.95923738     0.40200
C966        C  0.21668601  0.81604519  0.65011915     0.36800
C967        C  0.17053148  0.70562112  0.69800779     0.36500
C968        C  0.98367598  0.82428976  0.60857517     0.37300
N969        N  0.97412533  0.85497959  0.93307697    -0.43500
N970        N  0.25664161  0.80898907  0.69199447    -0.44000
N971        N  0.95063431  0.85577663  0.59867485    -0.41300
N972        N  0.20730352  0.67896553  0.71503295    -0.42800
H973        H  0.09783844  0.67865153  0.72373977     0.13400
H974        H  0.05827046  0.85561004  0.58771093     0.09900
H975        H  0.05565095  0.74814436  0.01603782     0.10900
H976        H  0.18721031  0.90916761  0.57409797     0.16800
C977        C  0.53099061  0.79208855  0.53495018    -0.01500
C978        C  0.56492144  0.80270175  0.59848436     0.07100
C979        C  0.61729642  0.80988977  0.61888098    -0.07400
C980        C  0.63436263  0.80959174  0.57509899     0.04600
C981        C  0.60050398  0.78904187  0.51482213    -0.14700
C982        C  0.54910679  0.79833106  0.99376958    -0.08000
C983        C  0.54424069  0.83926240  0.62816229     0.05500
C984        C  0.49834825  0.81743442  0.62665494    -0.09100
C985        C  0.45789650  0.85659066  0.60549649     0.00500
C986        C  0.46802713  0.91756424  0.59526041     0.00400
C987        C  0.50043705  0.92270581  0.57123450    -0.12700
C988        C  0.54709876  0.89952244  0.61034238     0.00800
C989        C  0.40753907  0.83369738  0.58938736     0.40200
C990        C  0.59414663  0.92971027  0.61922834     0.36800
C991        C  0.47820953  0.77216727  0.01107220     0.36500
C992        C  0.67674090  0.85031384  0.58516771     0.37300
N993        N  0.36710792  0.81462621  0.57586495    -0.43500
N994        N  0.63226708  0.95377866  0.62890896    -0.44000
N995        N  0.71066743  0.88303357  0.59364944    -0.41300
N996        N  0.43674650  0.75430240  0.99316565    -0.42800
H997        H  0.52204703  0.78986517  0.94647963     0.13400
H998        H  0.64229967  0.82797682  0.66534752     0.09900
H999        H  0.49051753  0.76955251  0.62881672     0.10900
H1000       H  0.49598942  0.96146154  0.54490785     0.16800
C1001       C  0.75959000  0.73775610  0.57496140    -0.01500
C1002       C  0.77257171  0.71189042  0.53227883     0.07100
C1003       C  0.73213587  0.68763065  0.47678541    -0.07400
C1004       C  0.68098639  0.69511413  0.96242438     0.04600
C1005       C  0.66720787  0.72285383  0.50357725    -0.14700
C1006       C  0.70880788  0.73507720  0.56376710    -0.08000
C1007       C  0.82767623  0.70059836  0.55111451     0.05500
C1008       C  0.85091829  0.65237075  0.59194541    -0.09100
C1009       C  0.90386709  0.64558743  0.62094632     0.00500
C1010       C  0.93654744  0.68483258  0.60825814     0.00400
C1011       C  0.91088821  0.72501353  0.55725458    -0.12700
C1012       C  0.85872286  0.73779608  0.53397610     0.00800
C1013       C  0.92412991  0.60642869  0.67370192     0.40200
C1014       C  0.83919250  0.79156349  0.49621977     0.36800
C1015       C  0.79696697  0.77286599  0.62754258     0.36500
C1016       C  0.64054366  0.67482995  0.90490830     0.37300
N1017       N  0.93847530  0.58143021  0.72063435    -0.43500
N1018       N  0.82391985  0.83528408  0.96672038    -0.44000
N1019       N  0.60104185  0.66502443  0.86324908    -0.41300
N1020       N  0.82619799  0.80425085  0.66720045    -0.42800
H1021       H  0.70325176  0.74279743  0.60333091     0.13400
H1022       H  0.73991211  0.66413180  0.94389004     0.09900
H1023       H  0.82818990  0.62315147  0.60616384     0.10900
H1024       H  0.93092723  0.74763027  0.53559275     0.16800
loop_ 
_geom_bond_atom_site_label_1 
_geom_bond_atom_site_label_2 
_geom_bond_distance 
_geom_bond_site_symmetry_2 
_ccdc_geom_bond_type 
C1           C48   1.670       .  S
C1          C271   1.694       .  S
C1          C469   1.524       .  S
C1          C493   1.613       .  S
C2           C27   1.713   1_655  S
C2           C60   1.667   1_655  S
C2          C189   1.538   1_655  S
C2          C242   1.598       .  S
O3          Ni11   1.965       .  S
O3           C13   1.304       .  A
O4          Ni11   2.036       .  S
O4          C270   1.289   1_554  A
O5          Ni11   2.052       .  S
O5           C15   1.309       .  A
O6          Ni11   2.072       .  S
O6           C16   1.309       .  A
O7          Ni12   2.017       .  S
O7           C16   1.297       .  A
O8          Ni12   2.037   1_556  S
O8           C15   1.305   1_556  A
O9         Ni268   1.990       .  S
O9           C14   1.309       .  A
O10         Ni12   1.991       .  S
O10          C13   1.290       .  A
Ni11        Ni12   2.320       .  S
Ni12        O265   1.990   1_554  S
C13          C63   1.675       .  S
C14         C546   1.664   1_545  S
C14         O260   1.289       .  A
C15         C257   1.694   1_554  S
C16         C543   1.731   1_545  S
O17         Ni25   1.966       .  S
O17          C27   1.294       .  A
O18         Ni25   1.988       .  S
O18          C28   1.294   1_544  A
O19         Ni25   1.985       .  S
O19         C285   1.288   1_554  A
O20         Ni25   1.933       .  S
O20          C30   1.287   1_545  A
O21         Ni26   2.011   1_565  S
O21          C30   1.295       .  A
O22        Ni282   1.975   1_655  S
O22          C29   1.307   1_655  A
O23         Ni26   2.060   1_566  S
O23          C28   1.306       .  A
O24         Ni26   2.083   1_655  S
O24          C27   1.314   1_655  A
Ni25        Ni26   2.319       .  S
Ni26        O278   1.975   1_454  S
C28         C800   1.685       .  S
C29          C64   1.658   1_455  S
C29         O275   1.288       .  A
C30         C545   1.632       .  S
C31          C47   1.709       .  S
C31         C165   1.625       .  S
C31         C218   1.538       .  S
C31         C528   1.731       .  S
C32          C59   1.674       .  S
C32         C796   1.685       .  S
C32         C426   1.621       .  S
C32         C450   1.525       .  S
C33          C61   1.703       .  S
C33         C122   1.494       .  S
C33         C141   1.648       .  S
C33         C542   1.632       .  S
C34          C45   1.732       .  S
C34          C93   1.534       .  S
C34         C146   1.630       .  S
C34         C526   1.664       .  S
O35         Ni43   2.082       .  S
O35          C45   1.311       .  A
O36         Ni43   2.046       .  S
O36          C46   1.300       .  A
O37         Ni43   2.052       .  S
O37          C47   1.300       .  A
O38         Ni43   2.020       .  S
O38          C48   1.303       .  A
O39         Ni44   2.017       .  S
O39          C48   1.295       .  A
O40         Ni44   2.001       .  S
O40          C47   1.296       .  A
O41         Ni44   1.993       .  S
O41          C46   1.301       .  A
O42         Ni44   2.036       .  S
O42          C45   1.302       .  A
Ni43        Ni44   2.307       .  S
C46          C63   1.714       .  S
O49         Ni57   1.977       .  S
O49          C59   1.291       .  A
O50         Ni57   2.012       .  S
O50          C60   1.295       .  A
O51         Ni57   2.019       .  S
O51          C61   1.297       .  A
O52         Ni57   1.990       .  S
O52          C62   1.296       .  A
O53         Ni58   2.004       .  S
O53          C62   1.297   1_655  A
O54         Ni58   2.023   1_455  S
O54          C61   1.301       .  A
O55         Ni58   2.025       .  S
O55          C60   1.307   1_655  A
O56         Ni58   2.037   1_455  S
O56          C59   1.295       .  A
Ni57        Ni58   2.304   1_455  S
C62          C64   1.692   1_455  S
C63          C74   1.593       .  S
C63          C98   1.500       .  S
C64          C69   1.571       .  S
C64         C117   1.483       .  S
C65          C66   1.403       .  A
C65          C70   1.401       .  A
C65          C79   1.442       .  S
C66          C67   1.379       .  A
C66          C71   1.473       .  S
C67          C68   1.377       .  A
C67          H86   1.083       .  S
C68          C69   1.425       .  A
C68          C80   1.418       .  S
C69          C70   1.424       .  A
C70          H85   1.075       .  S
C71          C72   1.379       .  A
C71          C76   1.400       .  A
C72          C73   1.393       .  A
C72          H87   1.078       .  S
C73          C74   1.440       .  A
C73          C77   1.429       .  S
C74          C75   1.426       .  A
C75          C76   1.389       .  A
C75          H88   1.073       .  S
C76          C78   1.448       .  S
C77          N81   1.156       .  T
C78          N82   1.157       .  T
C79          N84   1.157       .  T
C80          N83   1.146       .  T
C89          C90   1.385       .  A
C89          C94   1.352       .  A
C89         C103   1.452       .  S
C90          C91   1.398       .  A
C90          C95   1.412       .  S
C91         C604   1.359       .  A
C91         H110   1.030       .  S
C92          C93   1.378       .  A
C92         C603   1.358       .  A
C92         C104   1.438       .  S
C93         C606   1.417       .  A
C94         C605   1.417       .  A
C94         H109   1.066       .  S
C95          C96   1.397       .  A
C95         C100   1.398       .  A
C96          C97   1.377       .  A
C96         H111   1.085       .  S
C97          C98   1.434       .  A
C97         C101   1.439       .  S
C98          C99   1.419       .  A
C99         C100   1.325       .  A
C99         H112   1.075       .  S
C100        C102   1.456       .  S
C101        N105   1.157       .  T
C102        N106   1.158       .  T
C103        N108   1.158       .  T
C104        N107   1.156       .  T
C113        C114   1.398       .  A
C113        C118   1.302       .  A
C113        C127   1.455       .  S
C114        C115   1.411   1_455  A
C114        C119   1.407   1_545  S
C115        C116   1.384       .  A
C115        H134   1.080   1_545  S
C116        C117   1.420       .  A
C116        C128   1.445       .  S
C117        C118   1.411   1_655  A
C118        H133   1.085       .  S
C119        C120   1.404       .  A
C119        C124   1.388       .  A
C120        C121   1.341       .  A
C120        H135   1.048   1_565  S
C121        C634   1.359       .  A
C121        C125   1.438   1_565  S
C122        C633   1.359       .  A
C122        C635   1.429       .  A
C123        C124   1.351       .  A
C123        C634   1.428       .  A
C123        H648   1.074       .  S
C124        C126   1.458   1_455  S
C125        N129   1.153       .  T
C126        N130   1.158       .  T
C127        N132   1.158       .  T
C128        N131   1.158       .  T
H136        C635   1.074       .  S
C137        C138   1.391       .  A
C137        C142   1.413       .  A
C137        C151   1.441       .  S
C138        C139   1.379       .  A
C138        C143   1.502       .  S
C139        C140   1.406       .  A
C139        H158   1.087       .  S
C140        C141   1.460       .  A
C140        C152   1.429       .  S
C141        C142   1.444       .  A
C142        H157   1.075       .  S
C143        C144   1.388       .  A
C143        C148   1.401       .  A
C144        C145   1.417       .  A
C144        H159   1.087       .  S
C145        C146   1.457       .  A
C145        C149   1.431       .  S
C146        C147   1.433       .  A
C147        C148   1.398       .  A
C147        H160   1.076       .  S
C148        C150   1.444       .  S
C149        N153   1.159       .  T
C150        N666   1.157       .  T
C151        N156   1.157       .  T
C152        N155   1.157       .  T
N154        C662   1.157       .  T
C161        C162   1.393       .  A
C161        C166   1.408       .  A
C161        C431   1.440   1_554  S
C162        C163   1.386       .  A
C162        C167   1.489       .  S
C163        C164   1.401       .  A
C163        H182   1.089       .  S
C164        C165   1.457       .  A
C164        C176   1.441       .  S
C165        C166   1.434       .  A
C166        H181   1.077       .  S
C167        C168   1.385   1_554  A
C167        C172   1.398       .  A
C168        C425   1.394       .  A
C168        H439   1.084       .  S
C169        C424   1.394       .  A
C169        C426   1.459       .  A
C169        C173   1.450       .  S
C170        C288   1.621       .  S
C170        C171   1.434       .  A
C170        C425   1.459       .  A
C171        C172   1.410   1_556  A
C171        H696   1.072       .  S
C172        C686   1.442       .  S
C173        N177   1.159       .  T
C174        C684   1.442       .  S
C174        N178   1.157       .  T
C175        C417   1.440       .  S
C175        N180   1.156       .  T
C176        N179   1.159       .  T
H183        C424   1.084       .  S
H184        C683   1.072       .  S
C185        C186   1.377       .  A
C185        C190   1.373       .  A
C185        C199   1.445       .  S
C186        C187   1.411       .  A
C186        C191   1.453       .  S
C187        C188   1.382       .  A
C187        H206   1.073       .  S
C188        C189   1.408       .  A
C188        C200   1.444   1_455  S
C189        C190   1.444       .  A
C190        H205   1.086       .  S
C191        C192   1.398       .  A
C191        C196   1.379       .  A
C192        C449   1.382   1_554  A
C192        H463   1.073       .  S
C193        C448   1.382       .  A
C193        C450   1.409       .  A
C193        C197   1.452       .  S
C194        C288   1.525   1_554  S
C194        C195   1.426       .  A
C194        C449   1.409   1_554  A
C195        C196   1.381       .  A
C195        H208   1.076       .  S
C196        C198   1.442       .  S
C197        N201   1.158   1_455  T
C198        N202   1.157       .  T
C199        N204   1.157       .  T
C200        N203   1.158       .  T
H207        C448   1.073       .  S
C209        C210   1.402       .  A
C209        C470   1.353   1_554  A
C209        C479   1.454       .  S
C210        C211   1.408       .  A
C210        C215   1.430       .  S
C211        C212   1.387       .  A
C211        H230   1.085       .  S
C212        C213   1.395       .  A
C212        C224   1.447       .  S
C213        C257   1.524   1_554  S
C213        C470   1.398   1_554  A
C214        C465   1.353       .  A
C214        C469   1.398       .  A
C214        H229   1.057       .  S
C215        C216   1.425       .  A
C215        C220   1.395       .  A
C216        C217   1.396       .  A
C216        H231   1.072       .  S
C217        C218   1.403       .  A
C217        C221   1.439       .  S
C218        C219   1.356       .  A
C219        C220   1.375       .  A
C219        H232   1.027       .  S
C220        C222   1.455       .  S
C221        N225   1.157       .  T
C222        N226   1.158       .  T
C223        C465   1.454       .  S
C223        N228   1.158       .  T
C224        N227   1.158       .  T
C233        C234   1.408       .  A
C233        C238   1.414       .  A
C233        C247   1.442       .  S
C234        C235   1.408   1_554  A
C234        C239   1.521       .  S
C235        C492   1.420       .  A
C235        H510   1.080       .  S
C236        C491   1.420       .  A
C236        C493   1.410       .  A
C236        C248   1.408       .  S
C237        C257   1.613   1_554  S
C237        C238   1.418       .  A
C237        C492   1.410   1_554  A
C238        H253   1.071       .  S
C239        C240   1.396       .  A
C239        C244   1.417       .  A
C240        C241   1.411       .  A
C240        H255   1.086       .  S
C241        C242   1.418       .  A
C241        C245   1.417       .  S
C242        C243   1.417       .  A
C243        C244   1.427       .  A
C243        H256   1.075       .  S
C244        C246   1.441   1_554  S
C245        N249   1.146       .  T
C246        N506   1.158       .  T
C247        N252   1.157       .  T
C248        N251   1.147       .  T
N250        C502   1.158       .  T
H254        C491   1.080       .  S
C257        C304   1.670       .  S
C258        C283   1.713   1_655  S
C258        C316   1.667   1_655  S
C258        C445   1.538   1_655  S
C258        C498   1.598       .  S
O259       Ni267   1.965       .  S
O259        C269   1.304       .  A
O260       Ni267   2.036       .  S
O261       Ni267   2.052       .  S
O261        C271   1.309       .  A
O262       Ni267   2.072       .  S
O262        C272   1.309       .  A
O263       Ni268   2.017       .  S
O263        C272   1.297       .  A
O264       Ni268   2.037       .  S
O264        C271   1.305       .  A
O265        C270   1.309       .  A
O266       Ni268   1.991       .  S
O266        C269   1.290       .  A
Ni267      Ni268   2.320       .  S
C269        C319   1.675       .  S
C270        C802   1.664   1_545  S
C272        C799   1.731   1_545  S
O273       Ni281   1.966       .  S
O273        C283   1.294       .  A
O274       Ni281   1.988       .  S
O274        C284   1.294   1_545  A
O275       Ni281   1.985       .  S
O276       Ni281   1.933       .  S
O276        C286   1.287   1_545  A
O277       Ni282   2.011   1_565  S
O277        C286   1.295       .  A
O278        C285   1.307   1_655  A
O279       Ni282   2.060   1_565  S
O279        C284   1.306       .  A
O280       Ni282   2.083   1_655  S
O280        C283   1.314   1_655  A
Ni281      Ni282   2.319       .  S
C284        C544   1.685       .  S
C285        C320   1.658   1_455  S
C286        C801   1.632       .  S
C287        C784   1.731       .  S
C287        C303   1.709       .  S
C287        C421   1.625       .  S
C287        C474   1.538       .  S
C288        C540   1.685       .  S
C288        C315   1.674       .  S
C289        C798   1.632       .  S
C289        C317   1.703       .  S
C289        C378   1.494       .  S
C289        C397   1.648       .  S
C290        C782   1.664       .  S
C290        C301   1.732       .  S
C290        C349   1.534       .  S
C290        C402   1.630       .  S
O291       Ni299   2.082       .  S
O291        C301   1.311       .  A
O292       Ni299   2.046       .  S
O292        C302   1.300       .  A
O293       Ni299   2.052       .  S
O293        C303   1.300       .  A
O294       Ni299   2.020       .  S
O294        C304   1.303       .  A
O295       Ni300   2.017       .  S
O295        C304   1.295       .  A
O296       Ni300   2.001       .  S
O296        C303   1.296       .  A
O297       Ni300   1.993       .  S
O297        C302   1.301       .  A
O298       Ni300   2.036       .  S
O298        C301   1.302       .  A
Ni299      Ni300   2.307       .  S
C302        C319   1.714       .  S
O305       Ni313   1.977       .  S
O305        C315   1.291       .  A
O306       Ni313   2.012       .  S
O306        C316   1.295       .  A
O307       Ni313   2.019       .  S
O307        C317   1.297       .  A
O308       Ni313   1.990       .  S
O308        C318   1.296       .  A
O309       Ni314   2.004       .  S
O309        C318   1.297   1_655  A
O310       Ni314   2.023   1_455  S
O310        C317   1.301       .  A
O311       Ni314   2.025       .  S
O311        C316   1.307   1_655  A
O312       Ni314   2.037   1_455  S
O312        C315   1.295       .  A
Ni313      Ni314   2.304   1_455  S
C318        C320   1.692   1_455  S
C319        C330   1.593       .  S
C319        C354   1.500       .  S
C320        C325   1.571       .  S
C320        C373   1.483       .  S
C321        C322   1.402       .  A
C321        C326   1.401       .  A
C321        C335   1.442       .  S
C322        C323   1.379       .  A
C322        C327   1.473       .  S
C323        C324   1.377       .  A
C323        H342   1.083       .  S
C324        C325   1.425       .  A
C324        C336   1.418       .  S
C325        C326   1.424       .  A
C326        H341   1.075       .  S
C327        C328   1.379       .  A
C327        C332   1.400       .  A
C328        C329   1.393       .  A
C328        H343   1.078       .  S
C329        C330   1.440       .  A
C329        C333   1.429       .  S
C330        C331   1.426       .  A
C331        C332   1.388       .  A
C331        H344   1.073       .  S
C332        C334   1.448       .  S
C333        N337   1.156       .  T
C334        N338   1.157       .  T
C335        N340   1.157       .  T
C336        N339   1.146       .  T
C345        C346   1.385       .  A
C345        C350   1.352       .  A
C345        C359   1.452       .  S
C346        C347   1.398       .  A
C346        C351   1.412       .  S
C347        C860   1.359       .  A
C347        H366   1.029       .  S
C348        C859   1.359       .  A
C348        C349   1.378       .  A
C348        C360   1.438       .  S
C349        C862   1.417       .  A
C350        C861   1.417       .  A
C350        H365   1.066       .  S
C351        C352   1.397       .  A
C351        C356   1.398       .  A
C352        C353   1.377       .  A
C352        H367   1.085       .  S
C353        C354   1.434       .  A
C353        C357   1.439       .  S
C354        C355   1.419       .  A
C355        C356   1.326       .  A
C355        H368   1.075       .  S
C356        C358   1.456       .  S
C357        N361   1.157       .  T
C358        N362   1.158       .  T
C359        N364   1.158       .  T
C360        N363   1.156       .  T
C369        C370   1.398       .  A
C369        C374   1.302       .  A
C369        C383   1.455       .  S
C370        C371   1.411   1_455  A
C370        C375   1.407   1_545  S
C371        C372   1.384       .  A
C371        H390   1.080   1_545  S
C372        C373   1.420       .  A
C372        C384   1.445       .  S
C373        C374   1.411   1_655  A
C374        H389   1.085       .  S
C375        C376   1.404       .  A
C375        C380   1.388       .  A
C376        C377   1.341       .  A
C376        H391   1.048   1_565  S
C377        C890   1.359       .  A
C377        C381   1.438   1_565  S
C378        C889   1.359       .  A
C378        C891   1.429       .  A
C379        C890   1.428       .  A
C379        C380   1.351       .  A
C379        H904   1.074       .  S
C380        C382   1.458   1_455  S
C381        N385   1.153       .  T
C382        N386   1.158       .  T
C383        N388   1.158       .  T
C384        N387   1.158       .  T
H392        C891   1.074       .  S
C393        C394   1.391       .  A
C393        C398   1.413       .  A
C393        C407   1.441       .  S
C394        C395   1.379       .  A
C394        C399   1.502       .  S
C395        C396   1.406       .  A
C395        H414   1.087       .  S
C396        C397   1.460       .  A
C396        C408   1.429       .  S
C397        C398   1.444       .  A
C398        H413   1.075       .  S
C399        C400   1.388       .  A
C399        C404   1.401       .  A
C400        C401   1.417       .  A
C400        H415   1.087       .  S
C401        C402   1.456       .  A
C401        C405   1.431       .  S
C402        C403   1.433       .  A
C403        C404   1.398       .  A
C403        H416   1.076       .  S
C404        C406   1.444       .  S
C405        N409   1.159       .  T
C406        N922   1.157       .  T
C407        N412   1.157       .  T
C408        N411   1.157       .  T
N410        C918   1.157       .  T
C417        C418   1.393       .  A
C417        C422   1.408       .  A
C418        C419   1.386       .  A
C418        C423   1.489       .  S
C419        C420   1.401       .  A
C419        H438   1.089       .  S
C420        C421   1.457       .  A
C420        C432   1.441       .  S
C421        C422   1.434       .  A
C422        H437   1.077       .  S
C423        C424   1.385       .  A
C423        C428   1.398       .  A
C425        C429   1.450       .  S
C426        C427   1.434       .  A
C427        C428   1.410       .  A
C427        H952   1.072       .  S
C428        C942   1.442       .  S
C429        N433   1.159       .  T
C430        C940   1.442       .  S
C430        N434   1.157       .  T
C431        N436   1.156       .  T
C432        N435   1.159       .  T
H440        C939   1.072       .  S
C441        C442   1.377       .  A
C441        C446   1.373       .  A
C441        C455   1.445       .  S
C442        C443   1.411       .  A
C442        C447   1.453       .  S
C443        C444   1.382       .  A
C443        H462   1.073       .  S
C444        C445   1.408       .  A
C444        C456   1.444   1_455  S
C445        C446   1.444       .  A
C446        H461   1.086       .  S
C447        C448   1.398       .  A
C447        C452   1.379       .  A
C449        C453   1.452       .  S
C450        C451   1.426       .  A
C451        C452   1.381       .  A
C451        H464   1.076       .  S
C452        C454   1.442       .  S
C453        N457   1.158   1_455  T
C454        N458   1.157       .  T
C455        N460   1.157       .  T
C456        N459   1.158       .  T
C465        C466   1.402       .  A
C466        C467   1.408       .  A
C466        C471   1.430       .  S
C467        C468   1.387       .  A
C467        H486   1.085       .  S
C468        C469   1.395       .  A
C468        C480   1.447       .  S
C470        H485   1.057       .  S
C471        C472   1.425       .  A
C471        C476   1.395       .  A
C472        C473   1.396       .  A
C472        H487   1.072       .  S
C473        C474   1.403       .  A
C473        C477   1.439       .  S
C474        C475   1.356       .  A
C475        C476   1.375       .  A
C475        H488   1.028       .  S
C476        C478   1.455       .  S
C477        N481   1.157       .  T
C478        N482   1.158       .  T
C479        N484   1.158   1_554  T
C480        N483   1.158       .  T
C489        C490   1.408       .  A
C489        C494   1.414       .  A
C489        C503   1.442       .  S
C490        C491   1.408       .  A
C490        C495   1.521       .  S
C492        C504   1.407       .  S
C493        C494   1.418       .  A
C494        H509   1.071       .  S
C495        C496   1.396       .  A
C495        C500   1.417       .  A
C496        C497   1.411       .  A
C496        H511   1.086       .  S
C497        C498   1.418       .  A
C497        C501   1.417       .  S
C498        C499   1.417       .  A
C499        C500   1.427       .  A
C499        H512   1.075       .  S
C500        C502   1.441       .  S
C501        N505   1.146       .  T
C503        N508   1.157       .  T
C504        N507   1.147       .  T
C513        C783   1.694       .  S
C513        C560   1.670       .  S
C513        C981   1.524       .  S
C513       C1005   1.613       .  S
C514        C539   1.714   1_655  S
C514        C572   1.667   1_655  S
C514        C701   1.538   1_655  S
C514        C754   1.598       .  S
O515       Ni523   1.965       .  S
O515        C525   1.304       .  A
O516       Ni523   2.036       .  S
O516        C782   1.289   1_554  A
O517       Ni523   2.052       .  S
O517        C527   1.309       .  A
O518       Ni523   2.072       .  S
O518        C528   1.309       .  A
O519       Ni524   2.017       .  S
O519        C528   1.297       .  A
O520       Ni524   2.037   1_556  S
O520        C527   1.305   1_556  A
O521       Ni780   1.990       .  S
O521        C526   1.309       .  A
O522       Ni524   1.992       .  S
O522        C525   1.290       .  A
Ni523      Ni524   2.320       .  S
Ni524       O777   1.990   1_554  S
C525        C575   1.676       .  S
C526        O772   1.289       .  A
C527        C769   1.694   1_554  S
O529       Ni537   1.966       .  S
O529        C539   1.294       .  A
O530       Ni537   1.988       .  S
O530        C540   1.294   1_554  A
O531       Ni537   1.985       .  S
O531        C797   1.288   1_554  A
O532       Ni537   1.933       .  S
O532        C542   1.287       .  A
O533       Ni538   2.011       .  S
O533        C542   1.296       .  A
O534       Ni794   1.975   1_655  S
O534        C541   1.307   1_655  A
O535       Ni538   2.060   1_556  S
O535        C540   1.306       .  A
O536       Ni538   2.083   1_655  S
O536        C539   1.314   1_655  A
Ni537      Ni538   2.319       .  S
Ni538       O790   1.975   1_454  S
C541        C576   1.658   1_455  S
C541        O787   1.288       .  A
C543        C559   1.709       .  S
C543        C677   1.625       .  S
C543        C730   1.538       .  S
C544        C571   1.674       .  S
C544        C938   1.621       .  S
C544        C962   1.525       .  S
C545        C573   1.703       .  S
C545        C634   1.494       .  S
C545        C653   1.648       .  S
C546        C557   1.732       .  S
C546        C605   1.534   1_565  S
C546        C658   1.631       .  S
O547       Ni555   2.082       .  S
O547        C557   1.311       .  A
O548       Ni555   2.047       .  S
O548        C558   1.300       .  A
O549       Ni555   2.052       .  S
O549        C559   1.300       .  A
O550       Ni555   2.020       .  S
O550        C560   1.303       .  A
O551       Ni556   2.017       .  S
O551        C560   1.295       .  A
O552       Ni556   2.001       .  S
O552        C559   1.296       .  A
O553       Ni556   1.993       .  S
O553        C558   1.301       .  A
O554       Ni556   2.036       .  S
O554        C557   1.302       .  A
Ni555      Ni556   2.307       .  S
C558        C575   1.714       .  S
O561       Ni569   1.977       .  S
O561        C571   1.291       .  A
O562       Ni569   2.012       .  S
O562        C572   1.295       .  A
O563       Ni569   2.019       .  S
O563        C573   1.297       .  A
O564       Ni569   1.990       .  S
O564        C574   1.296       .  A
O565       Ni570   2.004       .  S
O565        C574   1.297   1_655  A
O566       Ni570   2.022   1_455  S
O566        C573   1.301       .  A
O567       Ni570   2.026       .  S
O567        C572   1.308   1_655  A
O568       Ni570   2.037   1_455  S
O568        C571   1.295       .  A
Ni569      Ni570   2.304   1_455  S
C574        C576   1.692   1_455  S
C575        C586   1.593       .  S
C575        C610   1.500       .  S
C576        C581   1.571       .  S
C576        C629   1.483       .  S
C577        C578   1.403       .  A
C577        C582   1.401       .  A
C577        C591   1.442       .  S
C578        C579   1.378       .  A
C578        C583   1.473       .  S
C579        C580   1.377       .  A
C579        H598   1.083       .  S
C580        C581   1.425       .  A
C580        C592   1.418       .  S
C581        C582   1.424       .  A
C582        H597   1.075       .  S
C583        C584   1.379       .  A
C583        C588   1.400       .  A
C584        C585   1.393       .  A
C584        H599   1.078       .  S
C585        C586   1.440       .  A
C585        C589   1.429       .  S
C586        C587   1.426       .  A
C587        C588   1.388       .  A
C587        H600   1.073       .  S
C588        C590   1.448       .  S
C589        N593   1.156       .  T
C590        N594   1.157       .  T
C591        N596   1.157       .  T
C592        N595   1.146       .  T
C601        C602   1.385       .  A
C601        C606   1.352       .  A
C601        C615   1.452       .  S
C602        C603   1.397       .  A
C602        C607   1.412       .  S
C603        H622   1.032       .  S
C604        C605   1.377       .  A
C604        C616   1.438       .  S
C606        H621   1.066       .  S
C607        C608   1.397       .  A
C607        C612   1.398       .  A
C608        C609   1.377       .  A
C608        H623   1.085       .  S
C609        C610   1.434       .  A
C609        C613   1.439       .  S
C610        C611   1.419       .  A
C611        C612   1.325       .  A
C611        H624   1.075       .  S
C612        C614   1.456       .  S
C613        N617   1.157       .  T
C614        N618   1.158       .  T
C615        N620   1.158       .  T
C616        N619   1.156       .  T
C625        C626   1.398       .  A
C625        C630   1.302       .  A
C625        C639   1.455       .  S
C626        C627   1.411   1_455  A
C626        C631   1.407       .  S
C627        C628   1.384       .  A
C627        H646   1.080       .  S
C628        C629   1.420       .  A
C628        C640   1.445       .  S
C629        C630   1.411   1_655  A
C630        H645   1.085       .  S
C631        C632   1.404       .  A
C631        C636   1.387       .  A
C632        C633   1.341       .  A
C632        H647   1.048       .  S
C633        C637   1.438       .  S
C635        C636   1.351       .  A
C636        C638   1.458   1_455  S
C637        N641   1.153       .  T
C638        N642   1.158       .  T
C639        N644   1.158       .  T
C640        N643   1.158       .  T
C649        C650   1.391       .  A
C649        C654   1.413       .  A
C649        C663   1.441       .  S
C650        C651   1.379       .  A
C650        C655   1.502       .  S
C651        C652   1.406       .  A
C651        H670   1.087       .  S
C652        C653   1.460       .  A
C652        C664   1.429       .  S
C653        C654   1.444       .  A
C654        H669   1.075       .  S
C655        C656   1.388       .  A
C655        C660   1.401       .  A
C656        C657   1.417       .  A
C656        H671   1.087       .  S
C657        C658   1.457       .  A
C657        C661   1.431       .  S
C658        C659   1.433       .  A
C659        C660   1.398       .  A
C659        H672   1.076   1_565  S
C660        C662   1.444   1_565  S
C661        N665   1.159       .  T
C663        N668   1.157       .  T
C664        N667   1.157   1_565  T
C673        C674   1.393       .  A
C673        C678   1.408       .  A
C673        C943   1.440   1_554  S
C674        C675   1.386   1_545  A
C674        C679   1.489       .  S
C675        C676   1.400       .  A
C675        H694   1.089       .  S
C676        C677   1.457       .  A
C676        C688   1.441       .  S
C677        C678   1.434   1_565  A
C678        H693   1.077       .  S
C679        C680   1.385   1_544  A
C679        C684   1.398       .  A
C680        C937   1.394       .  A
C680        H951   1.084       .  S
C681        C936   1.394       .  A
C681        C938   1.459       .  A
C681        C685   1.450       .  S
C682        C800   1.621       .  S
C682        C937   1.459       .  A
C682        C683   1.434   1_565  A
C683        C684   1.410   1_556  A
C685        N689   1.159       .  T
C686        N690   1.157       .  T
C687        C929   1.440       .  S
C687        N692   1.156       .  T
C688        N691   1.159       .  T
H695        C936   1.084       .  S
C697        C698   1.377       .  A
C697        C702   1.373       .  A
C697        C711   1.445       .  S
C698        C699   1.411       .  A
C698        C703   1.453       .  S
C699        C700   1.382       .  A
C699        H718   1.073       .  S
C700        C701   1.408       .  A
C700        C712   1.444   1_455  S
C701        C702   1.444       .  A
C702        H717   1.086       .  S
C703        C704   1.398       .  A
C703        C708   1.379       .  A
C704        C961   1.382   1_554  A
C704        H975   1.073       .  S
C705        C960   1.382       .  A
C705        C962   1.409       .  A
C705        C709   1.452       .  S
C706        C800   1.525   1_554  S
C706        C961   1.409   1_554  A
C706        C707   1.426       .  A
C707        C708   1.381       .  A
C707        H720   1.076       .  S
C708        C710   1.442       .  S
C709        N713   1.158   1_455  T
C710        N714   1.157       .  T
C711        N716   1.157       .  T
C712        N715   1.158       .  T
H719        C960   1.073       .  S
C721        C722   1.402       .  A
C721        C982   1.353   1_554  A
C721        C991   1.454       .  S
C722        C723   1.408       .  A
C722        C727   1.430       .  S
C723        C724   1.387       .  A
C723        H742   1.085       .  S
C724        C725   1.395       .  A
C724        C736   1.447       .  S
C725        C769   1.524   1_554  S
C725        C982   1.398   1_554  A
C726        C977   1.353       .  A
C726        C981   1.398       .  A
C726        H741   1.057       .  S
C727        C728   1.425       .  A
C727        C732   1.395       .  A
C728        C729   1.396       .  A
C728        H743   1.072       .  S
C729        C730   1.403       .  A
C729        C733   1.439       .  S
C730        C731   1.356       .  A
C731        C732   1.375       .  A
C731        H744   1.028       .  S
C732        C734   1.455       .  S
C733        N737   1.157       .  T
C734        N738   1.158       .  T
C735        C977   1.454       .  S
C735        N740   1.158       .  T
C736        N739   1.158       .  T
C745        C746   1.408       .  A
C745        C750   1.415       .  A
C745        C759   1.442       .  S
C746        C747   1.408   1_554  A
C746        C751   1.521       .  S
C747       C1004   1.419       .  A
C747       H1022   1.080       .  S
C748       C1003   1.419       .  A
C748       C1005   1.409       .  A
C748        C760   1.408       .  S
C749        C769   1.613   1_554  S
C749       C1004   1.409   1_554  A
C749        C750   1.418       .  A
C750        H765   1.071       .  S
C751        C752   1.396       .  A
C751        C756   1.417       .  A
C752        C753   1.411       .  A
C752        H767   1.086       .  S
C753        C754   1.418       .  A
C753        C757   1.417       .  S
C754        C755   1.417       .  A
C755        C756   1.427       .  A
C755        H768   1.075       .  S
C756        C758   1.441   1_554  S
C757        N761   1.146       .  T
C758       N1018   1.157       .  T
C759        N764   1.157       .  T
C760        N763   1.147       .  T
N762       C1014   1.157       .  T
H766       C1003   1.080       .  S
C769        C816   1.670       .  S
C770        C795   1.714   1_655  S
C770        C828   1.667   1_655  S
C770        C957   1.538   1_655  S
C770       C1010   1.598       .  S
O771       Ni779   1.965       .  S
O771        C781   1.304       .  A
O772       Ni779   2.036       .  S
O773       Ni779   2.052       .  S
O773        C783   1.309       .  A
O774       Ni779   2.072       .  S
O774        C784   1.309       .  A
O775       Ni780   2.016       .  S
O775        C784   1.297       .  A
O776       Ni780   2.037       .  S
O776        C783   1.305       .  A
O777        C782   1.309       .  A
O778       Ni780   1.992       .  S
O778        C781   1.290       .  A
Ni779      Ni780   2.320       .  S
C781        C831   1.675       .  S
O785       Ni793   1.966       .  S
O785        C795   1.294       .  A
O786       Ni793   1.988       .  S
O786        C796   1.294       .  A
O787       Ni793   1.985       .  S
O788       Ni793   1.933       .  S
O788        C798   1.287       .  A
O789       Ni794   2.011       .  S
O789        C798   1.296       .  A
O790        C797   1.307   1_655  A
O791       Ni794   2.060       .  S
O791        C796   1.306       .  A
O792       Ni794   2.083   1_655  S
O792        C795   1.314   1_655  A
Ni793      Ni794   2.319       .  S
C797        C832   1.658   1_455  S
C799        C815   1.709       .  S
C799        C933   1.625       .  S
C799        C986   1.538       .  S
C800        C827   1.674       .  S
C801        C829   1.703       .  S
C801        C890   1.494       .  S
C801        C909   1.648       .  S
C802        C813   1.732       .  S
C802        C861   1.534   1_565  S
C802        C914   1.631       .  S
O803       Ni811   2.082       .  S
O803        C813   1.311       .  A
O804       Ni811   2.047       .  S
O804        C814   1.300       .  A
O805       Ni811   2.052       .  S
O805        C815   1.300       .  A
O806       Ni811   2.020       .  S
O806        C816   1.303       .  A
O807       Ni812   2.017       .  S
O807        C816   1.295       .  A
O808       Ni812   2.001       .  S
O808        C815   1.296       .  A
O809       Ni812   1.993       .  S
O809        C814   1.301       .  A
O810       Ni812   2.036       .  S
O810        C813   1.302       .  A
Ni811      Ni812   2.307       .  S
C814        C831   1.714       .  S
O817       Ni825   1.977       .  S
O817        C827   1.291       .  A
O818       Ni825   2.012       .  S
O818        C828   1.295       .  A
O819       Ni825   2.019       .  S
O819        C829   1.297       .  A
O820       Ni825   1.990       .  S
O820        C830   1.296       .  A
O821       Ni826   2.004       .  S
O821        C830   1.297   1_655  A
O822       Ni826   2.022   1_455  S
O822        C829   1.301       .  A
O823       Ni826   2.026       .  S
O823        C828   1.307   1_655  A
O824       Ni826   2.037   1_455  S
O824        C827   1.295       .  A
Ni825      Ni826   2.304   1_455  S
C830        C832   1.692   1_455  S
C831        C842   1.593       .  S
C831        C866   1.500       .  S
C832        C837   1.571       .  S
C832        C885   1.483       .  S
C833        C834   1.403       .  A
C833        C838   1.401       .  A
C833        C847   1.442       .  S
C834        C835   1.378       .  A
C834        C839   1.473       .  S
C835        C836   1.377       .  A
C835        H854   1.083       .  S
C836        C837   1.425       .  A
C836        C848   1.418       .  S
C837        C838   1.424       .  A
C838        H853   1.075       .  S
C839        C840   1.379       .  A
C839        C844   1.400       .  A
C840        C841   1.393       .  A
C840        H855   1.078       .  S
C841        C842   1.440       .  A
C841        C845   1.429       .  S
C842        C843   1.426       .  A
C843        C844   1.388       .  A
C843        H856   1.073       .  S
C844        C846   1.448       .  S
C845        N849   1.156       .  T
C846        N850   1.157       .  T
C847        N852   1.157       .  T
C848        N851   1.146       .  T
C857        C858   1.385       .  A
C857        C862   1.352       .  A
C857        C871   1.452       .  S
C858        C859   1.397       .  A
C858        C863   1.412       .  S
C859        H878   1.032       .  S
C860        C861   1.377       .  A
C860        C872   1.438       .  S
C862        H877   1.066       .  S
C863        C864   1.397       .  A
C863        C868   1.398       .  A
C864        C865   1.377       .  A
C864        H879   1.085       .  S
C865        C866   1.434       .  A
C865        C869   1.439       .  S
C866        C867   1.418       .  A
C867        C868   1.325       .  A
C867        H880   1.075       .  S
C868        C870   1.456       .  S
C869        N873   1.157       .  T
C870        N874   1.158       .  T
C871        N876   1.158       .  T
C872        N875   1.156       .  T
C881        C882   1.398       .  A
C881        C886   1.302       .  A
C881        C895   1.455       .  S
C882        C883   1.411   1_455  A
C882        C887   1.407       .  S
C883        C884   1.384       .  A
C883        H902   1.080       .  S
C884        C885   1.420       .  A
C884        C896   1.445       .  S
C885        C886   1.411   1_655  A
C886        H901   1.085       .  S
C887        C888   1.404       .  A
C887        C892   1.387       .  A
C888        C889   1.341       .  A
C888        H903   1.048       .  S
C889        C893   1.438       .  S
C891        C892   1.351       .  A
C892        C894   1.458   1_455  S
C893        N897   1.153       .  T
C894        N898   1.158       .  T
C895        N900   1.158       .  T
C896        N899   1.158       .  T
C905        C906   1.391       .  A
C905        C910   1.413       .  A
C905        C919   1.441       .  S
C906        C907   1.379       .  A
C906        C911   1.502       .  S
C907        C908   1.406       .  A
C907        H926   1.087       .  S
C908        C909   1.460       .  A
C908        C920   1.429       .  S
C909        C910   1.444       .  A
C910        H925   1.075       .  S
C911        C912   1.388       .  A
C911        C916   1.401       .  A
C912        C913   1.417       .  A
C912        H927   1.087       .  S
C913        C914   1.457       .  A
C913        C917   1.431       .  S
C914        C915   1.433       .  A
C915        C916   1.398       .  A
C915        H928   1.076   1_565  S
C916        C918   1.443   1_565  S
C917        N921   1.159       .  T
C919        N924   1.157       .  T
C920        N923   1.157   1_565  T
C929        C930   1.393       .  A
C929        C934   1.408       .  A
C930        C931   1.386   1_545  A
C930        C935   1.489       .  S
C931        C932   1.400       .  A
C931        H950   1.089       .  S
C932        C933   1.457       .  A
C932        C944   1.441       .  S
C933        C934   1.434   1_565  A
C934        H949   1.077       .  S
C935        C936   1.385   1_545  A
C935        C940   1.398       .  A
C937        C941   1.450       .  S
C938        C939   1.434   1_565  A
C939        C940   1.410       .  A
C941        N945   1.159       .  T
C942        N946   1.157       .  T
C943        N948   1.156       .  T
C944        N947   1.159       .  T
C953        C954   1.377       .  A
C953        C958   1.373       .  A
C953        C967   1.445       .  S
C954        C955   1.411       .  A
C954        C959   1.453       .  S
C955        C956   1.382       .  A
C955        H974   1.073       .  S
C956        C957   1.408       .  A
C956        C968   1.444   1_455  S
C957        C958   1.444       .  A
C958        H973   1.086       .  S
C959        C960   1.398       .  A
C959        C964   1.379       .  A
C961        C965   1.452       .  S
C962        C963   1.426       .  A
C963        C964   1.381       .  A
C963        H976   1.076       .  S
C964        C966   1.442       .  S
C965        N969   1.158   1_455  T
C966        N970   1.157       .  T
C967        N972   1.157       .  T
C968        N971   1.158       .  T
C977        C978   1.402       .  A
C978        C979   1.408       .  A
C978        C983   1.430       .  S
C979        C980   1.387       .  A
C979        H998   1.085       .  S
C980        C981   1.395       .  A
C980        C992   1.447       .  S
C982        H997   1.057       .  S
C983        C984   1.425       .  A
C983        C988   1.395       .  A
C984        C985   1.396       .  A
C984        H999   1.072       .  S
C985        C986   1.403       .  A
C985        C989   1.439       .  S
C986        C987   1.356       .  A
C987        C988   1.375       .  A
C987       H1000   1.028       .  S
C988        C990   1.455       .  S
C989        N993   1.157       .  T
C990        N994   1.158       .  T
C991        N996   1.158   1_554  T
C992        N995   1.158       .  T
C1001      C1002   1.408       .  A
C1001      C1006   1.415       .  A
C1001      C1015   1.442       .  S
C1002      C1003   1.408       .  A
C1002      C1007   1.522       .  S
C1004      C1016   1.408       .  S
C1005      C1006   1.418       .  A
C1006      H1021   1.071       .  S
C1007      C1008   1.396       .  A
C1007      C1012   1.417       .  A
C1008      C1009   1.411       .  A
C1008      H1023   1.086       .  S
C1009      C1010   1.418       .  A
C1009      C1013   1.417       .  S
C1010      C1011   1.417       .  A
C1011      C1012   1.427       .  A
C1011      H1024   1.075       .  S
C1012      C1014   1.441       .  S
C1013      N1017   1.146       .  T
C1015      N1020   1.157       .  T
C1016      N1019   1.147       .  T
