geometry optimzed in LAMMPS
_audit_creation_date              2020-11-30 
_audit_creation_method            'lammps2cif' 
_symmetry_space_group_name_H-M    'P1' 
_symmetry_Int_Tables_number       1 
_symmetry_cell_setting            triclinic 
loop_ 
_symmetry_equiv_pos_as_xyz 
  x,y,z 
_cell_length_a                    40.02351423485314 
_cell_length_b                    39.84418811290666 
_cell_length_c                    21.653404933489515 
_cell_angle_alpha                 91.81990829262433 
_cell_angle_beta                  89.8965797092629 
_cell_angle_gamma                 120.12177500978915 
loop_ 
_atom_site_label 
_atom_site_type_symbol 
_atom_site_fract_x 
_atom_site_fract_y 
_atom_site_fract_z 
_atom_site_charge 
C1          C  0.49698695  0.13830505  0.23309000     0.01510
C2          C  0.10319306  0.13884741  0.23357339     0.01510
C3          C  0.10375864  0.03217565  0.23998032     0.01510
C4          C  0.99666945  0.42450470  0.24564581     0.01510
C5          C  0.38947990  0.42499715  0.24487189     0.01510
C6          C  0.38916777  0.03218381  0.23895817     0.01510
O7          O  0.20896423  0.03746280  0.37016446    -0.76130
O8          O  0.31241532  0.09775779  0.06214140    -0.76160
O9          O  0.23580806  0.08307197  0.46349262    -0.76170
O10         O  0.32707608  0.02775820  0.43241971    -0.76110
O11         O  0.24665309  0.09819758  0.06271962    -0.76230
O12         O  0.28853828  0.03689806  0.36947159    -0.76150
O13         O  0.30777902  0.08249303  0.46290145    -0.76130
O14         O  0.16157417  0.02897240  0.43362532    -0.76170
C15         C  0.17530873  0.03468449  0.37994741     1.13560
C16         C  0.32170218  0.10684434  0.50678638     1.13440
C17         C  0.24675086  0.10745810  0.50740685     1.13580
C18         C  0.31928746  0.03386212  0.37892375     1.13460
O19         O  0.24226558  0.46192094  0.41652826    -0.76140
O20         O  0.20736477  0.02704335  0.12736994    -0.76210
O21         O  0.16748784  0.47752287  0.50729260    -0.76150
O22         O  0.32383610  0.04181872  0.05485661    -0.76130
O23         O  0.28025735  0.02671149  0.12694125    -0.76180
O24         O  0.17952389  0.46249470  0.41686544    -0.76150
O25         O  0.26955995  0.47677870  0.50664319    -0.76100
O26         O  0.17911636  0.04279111  0.05601275    -0.76170
Co27       Co  0.23270424  0.50534743  0.40763449     1.51530
Co28       Co  0.26002685  0.05920074  0.09012976     1.51690
Co29       Co  0.20087599  0.02937467  0.48230801     1.51570
Co30       Co  0.28852062  0.02870379  0.48166367     1.51470
O31         O  0.24245589  0.02452436  0.50960588    -1.38070
C32         C  0.24987864  0.45205364  0.46627682     1.13480
C33         C  0.17991532  0.03246682  0.11037010     1.13570
C34         C  0.16215846  0.45274986  0.46678659     1.13510
C35         C  0.31300525  0.03189659  0.10949512     1.13480
O36         O  0.99609437  0.19630625  0.43082534    -0.76130
O37         O  0.04761757  0.34298862  0.46127705    -0.76160
O38         O  0.50108758  0.32255025  0.37044287    -0.76170
O39         O  0.06467191  0.28251535  0.05951770    -0.76110
O40         O  0.99210035  0.36132203  0.43623653    -0.76230
O41         O  0.05042751  0.27081234  0.46038792    -0.76150
O42         O  0.06368063  0.34814504  0.05993695    -0.76130
O43         O  0.50395844  0.24377243  0.36952636    -0.76170
C44         C  0.50120182  0.21000057  0.37758852     1.13560
C45         C  0.07225794  0.35642928  0.50406358     1.13440
C46         C  0.49775726  0.35333645  0.38169263     1.13580
C47         C  0.07450373  0.28265961  0.00398175     1.13460
O48         O  0.01000691  0.21472993  0.05346151    -0.76140
O49         O  0.44353157  0.30401595  0.51392201    -0.76210
O50         O  0.42920325  0.21296096  0.41887288    -0.76150
O51         O  0.99318939  0.31637021  0.12808915    -0.76130
O52         O  0.50849700  0.35993757  0.05737031    -0.76180
O53         O  0.44508813  0.20244009  0.00800908    -0.76150
O54         O  0.99392369  0.24347391  0.12641909    -0.76100
O55         O  0.42798363  0.27561929  0.42387922    -0.76170
Co56       Co  0.99667711  0.23594639  0.48105347     1.51530
Co57       Co  0.49451425  0.32344049  0.48392293     1.51690
Co58       Co  0.47123579  0.26674053  0.40935810     1.51570
Co59       Co  0.02573856  0.29602172  0.08917461     1.51470
O60         O  0.99145268  0.27769552  0.50991113    -1.38070
C61         C  0.99938389  0.21579242  0.10819573     1.13480
C62         C  0.41861756  0.28280977  0.47542746     1.13570
C63         C  0.41997333  0.19609173  0.46886554     1.13510
C64         C  0.99839473  0.34919295  0.11189836     1.13480
O65         O  0.20200312  0.24411164  0.36955170    -0.76130
O66         O  0.24614006  0.34887359  0.05971216    -0.76160
O67         O  0.18241878  0.27111958  0.46049473    -0.76170
O68         O  0.33094176  0.36246730  0.43545842    -0.76110
O69         O  0.17976210  0.28300751  0.05955450    -0.76230
O70         O  0.28317049  0.32331127  0.37011826    -0.76150
O71         O  0.25707200  0.34376884  0.46105115    -0.76130
O72         O  0.16278792  0.19666590  0.43122243    -0.76170
C73         C  0.17107557  0.21032291  0.37792018     1.13560
C74         C  0.24551781  0.35692140  0.50388718     1.13440
C75         C  0.17002298  0.28291443  0.00403747     1.13580
C76         C  0.31719370  0.35422453  0.38104878     1.13460
O77         O  0.31012875  0.27708803  0.42314358    -0.76140
O78         O  0.21171929  0.24431993  0.12658636    -0.76210
O79         O  0.22020264  0.20348577  0.00830178    -0.76150
O80         O  0.31321219  0.36099131  0.05681342    -0.76130
O81         O  0.28515413  0.31733182  0.12753203    -0.76180
O82         O  0.24668189  0.21403511  0.41907816    -0.76150
O83         O  0.32280700  0.30546199  0.51316667    -0.76100
O84         O  0.16705924  0.21525820  0.05375189    -0.76170
Co85       Co  0.25778516  0.26760960  0.40912430     1.51530
Co86       Co  0.23224819  0.29681062  0.08903216     1.51690
Co87       Co  0.20168677  0.23659491  0.48122810     1.51570
Co88       Co  0.29092062  0.32454276  0.48343948     1.51470
O89         O  0.24847132  0.27864729  0.50972342    -1.38070
C90         C  0.32650367  0.28416553  0.47471247     1.13480
C91         C  0.17865808  0.21648868  0.10853293     1.13570
C92         C  0.23919008  0.19730601  0.46919953     1.13510
C93         C  0.31269799  0.35015462  0.11120681     1.13480
C94         C  0.14190732  0.29270435  0.99172202    -0.09270
C95         C  0.11247962  0.29263807  0.99169516    -0.10830
C96         C  0.35177014  0.27123233  0.48650983    -0.09270
C97         C  0.38051588  0.27059969  0.48681866    -0.10830
C98         C  0.23558934  0.38430769  0.48942050    -0.09270
C99         C  0.23766987  0.41351457  0.47582891    -0.10830
C100        C  0.25113495  0.17092602  0.48092161    -0.09270
C101        C  0.25455276  0.14450219  0.49469485    -0.10830
C102        C  0.10923854  0.38461665  0.48974095    -0.09270
C103        C  0.13591411  0.41423877  0.47646575    -0.10830
C104        C  0.38168620  0.16961933  0.48046721    -0.09270
C105        C  0.35158555  0.14350792  0.49400594    -0.10830
C106        C  0.33977754  0.02890011  0.15142095    -0.09270
C107        C  0.36411584  0.02944815  0.18603459    -0.10830
C108        C  0.34582813  0.03724259  0.33029492    -0.09270
C109        C  0.36789984  0.03567856  0.29292871    -0.10830
C110        C  0.34301819  0.37670463  0.15412646    -0.09270
C111        C  0.36705474  0.40055717  0.19036715    -0.10830
C112        C  0.36456117  0.40287484  0.29721935    -0.09270
C113        C  0.34074000  0.38057365  0.33319770    -0.10830
C114        C  0.39245489  0.46462532  0.24295177    -0.09270
C115        C  0.39198745  0.49547452  0.24136394    -0.10830
C116        C  0.99482684  0.39994863  0.19122975    -0.09270
C117        C  0.99487481  0.37591029  0.15506154    -0.10830
C118        C  0.49917166  0.40230558  0.29819325    -0.09270
C119        C  0.50055486  0.37987485  0.33408694    -0.10830
C120        C  0.42889388  0.42747919  0.24776295    -0.09270
C121        C  0.45985607  0.42723575  0.24803540    -0.10830
C122        C  0.15007819  0.02914703  0.15246418    -0.09270
C123        C  0.12619285  0.02946499  0.18718393    -0.10830
C124        C  0.15205755  0.03773537  0.33138659    -0.09270
C125        C  0.12840039  0.03584400  0.29396979    -0.10830
C126        C  0.03325739  0.46421148  0.24386183    -0.09270
C127        C  0.06433234  0.49531954  0.24238440    -0.10830
C128        C  0.15249028  0.18650341  0.14960810    -0.09270
C129        C  0.12835430  0.16213562  0.18265334    -0.10830
C130        C  0.14502666  0.18686614  0.32802929    -0.09270
C131        C  0.12366767  0.16317777  0.28908574    -0.10830
C132        C  0.10088727  0.09966331  0.23523134    -0.09270
C133        C  0.10077768  0.06860622  0.23680817    -0.10830
C134        C  0.99527694  0.16150698  0.18212919    -0.09270
C135        C  0.99553866  0.18581068  0.14905802    -0.10830
C136        C  0.50343433  0.18651561  0.32740091    -0.09270
C137        C  0.50079208  0.16270801  0.28842613    -0.10830
C138        C  0.06369142  0.13493436  0.22910073    -0.09270
C139        C  0.03270941  0.13459461  0.22889528    -0.10830
C140        C  0.42867651  0.06852032  0.23603352    -0.09300
C141        C  0.45994312  0.09925492  0.23468358    -0.10830
C142        C  0.49699868  0.13832548  0.73311053     0.01510
C143        C  0.10319752  0.13885351  0.73353513     0.01510
C144        C  0.10375385  0.03217709  0.73992672     0.01510
C145        C  0.99667745  0.42449540  0.74564710     0.01510
C146        C  0.38949125  0.42499640  0.74492046     0.01510
C147        C  0.38918805  0.03219102  0.73900588     0.01510
O148        O  0.20893883  0.03746713  0.87014242    -0.76130
O149        O  0.31244830  0.09778427  0.56217705    -0.76160
O150        O  0.23575769  0.08305658  0.96348089    -0.76170
O151        O  0.32700725  0.02768699  0.93239950    -0.76110
O152        O  0.24668951  0.09821875  0.56273167    -0.76230
O153        O  0.28850713  0.03687466  0.86944139    -0.76150
O154        O  0.30774924  0.08245454  0.96286884    -0.76130
O155        O  0.16153063  0.02894658  0.93359026    -0.76170
C156        C  0.17527754  0.03467755  0.87991882     1.13560
C157        C  0.32168994  0.10680658  0.00675091     1.13440
C158        C  0.24671008  0.10744043  0.00739922     1.13580
C159        C  0.31924503  0.03382037  0.87890619     1.13460
O160        O  0.24220907  0.46189914  0.91648798    -0.76140
O161        O  0.20740007  0.02706331  0.62739233    -0.76210
O162        O  0.16745867  0.47749981  0.00726204    -0.76150
O163        O  0.32389093  0.04186875  0.55489288    -0.76130
O164        O  0.28030107  0.02673944  0.62696849    -0.76180
O165        O  0.17948461  0.46249774  0.91681094    -0.76150
O166        O  0.26946782  0.47672943  0.00662733    -0.76100
O167        O  0.17916483  0.04282060  0.55602884    -0.76170
Co168      Co  0.23266796  0.50534003  0.90759772     1.51530
Co169      Co  0.26006354  0.05922259  0.59015636     1.51690
Co170      Co  0.20083148  0.02935500  0.98228392     1.51570
Co171      Co  0.28846206  0.02865885  0.98163652     1.51470
O172        O  0.24241360  0.02451026  0.00957491    -1.38070
C173        C  0.24978477  0.45201327  0.96625075     1.13480
C174        C  0.17995370  0.03248954  0.61038395     1.13570
C175        C  0.16215114  0.45273473  0.96675510     1.13510
C176        C  0.31305298  0.03193254  0.60952558     1.13480
O177        O  0.99614345  0.19634124  0.93085668    -0.76130
O178        O  0.04771165  0.34298647  0.96132597    -0.76160
O179        O  0.50115621  0.32258672  0.87048620    -0.76170
O180        O  0.06464548  0.28251995  0.55948937    -0.76110
O181        O  0.99227554  0.36142675  0.93628614    -0.76230
O182        O  0.05045047  0.27085007  0.96041581    -0.76150
O183        O  0.06360862  0.34813529  0.55987913    -0.76130
O184        O  0.50398085  0.24379651  0.86955925    -0.76170
C185        C  0.50123844  0.21003126  0.87761917     1.13560
C186        C  0.07234516  0.35642199  0.00412117     1.13440
C187        C  0.49787248  0.35339996  0.88173289     1.13580
C188        C  0.07447980  0.28263526  0.50396092     1.13460
O189        O  0.00997558  0.21470718  0.55343697    -0.76140
O190        O  0.44364665  0.30415986  0.01393462    -0.76210
O191        O  0.42921892  0.21300571  0.91893018    -0.76150
O192        O  0.99312487  0.31633168  0.62804809    -0.76130
O193        O  0.50837335  0.35987947  0.55731667    -0.76180
O194        O  0.44505328  0.20243439  0.50799242    -0.76150
O195        O  0.99389716  0.24345974  0.62638715    -0.76100
O196        O  0.42804522  0.27569419  0.92393877    -0.76170
Co197      Co  0.99670971  0.23597411  0.98108320     1.51530
Co198      Co  0.49462093  0.32350636  0.98396151     1.51690
Co199      Co  0.47127373  0.26678008  0.90940943     1.51570
Co200      Co  0.02569420  0.29600720  0.58913098     1.51470
O201        O  0.99148374  0.27772370  0.00996047    -1.38070
C202        C  0.99935943  0.21577823  0.60817322     1.13480
C203        C  0.41871398  0.28296380  0.97545850     1.13570
C204        C  0.42000293  0.19609490  0.96889011     1.13510
C205        C  0.99830793  0.34914610  0.61185924     1.13480
O206        O  0.20197909  0.24409685  0.86955613    -0.76130
O207        O  0.24623417  0.34889493  0.55971620    -0.76160
O208        O  0.18237623  0.27109464  0.96048392    -0.76170
O209        O  0.33086017  0.36251175  0.93548734    -0.76110
O210        O  0.17982589  0.28304948  0.55956635    -0.76230
O211        O  0.28312947  0.32331039  0.87012323    -0.76150
O212        O  0.25696843  0.34374452  0.96104408    -0.76130
O213        O  0.16275822  0.19664738  0.93121915    -0.76170
C214        C  0.17105297  0.21030601  0.87791820     1.13560
C215        C  0.24540956  0.35689187  0.00388140     1.13440
C216        C  0.17006050  0.28293176  0.50405452     1.13580
C217        C  0.31713851  0.35424124  0.88106441     1.13460
O218        O  0.31011098  0.27711434  0.92318906    -0.76140
O219        O  0.21176036  0.24433094  0.62658624    -0.76210
O220        O  0.22023711  0.20349508  0.50829029    -0.76150
O221        O  0.31330439  0.36097169  0.55679876    -0.76130
O222        O  0.28521523  0.31732378  0.62752652    -0.76180
O223        O  0.24667454  0.21404413  0.91910892    -0.76150
O224        O  0.32277919  0.30553700  0.01317840    -0.76100
O225        O  0.16710027  0.21528151  0.55375015    -0.76170
Co226      Co  0.25775977  0.26761173  0.90914395     1.51530
Co227      Co  0.23231115  0.29682578  0.58903127     1.51690
Co228      Co  0.20164820  0.23657950  0.98123149     1.51570
Co229      Co  0.29085059  0.32456289  0.98344728     1.51470
O230        O  0.24842788  0.27864332  0.00973293    -1.38070
C231        C  0.32652006  0.28426312  0.97473830     1.13480
C232        C  0.17869566  0.21650675  0.60853084     1.13570
C233        C  0.23916644  0.19730449  0.96922189     1.13510
C234        C  0.31276921  0.35014146  0.61120293     1.13480
C235        C  0.14189587  0.29266434  0.49175481    -0.09270
C236        C  0.11245594  0.29258117  0.49170448    -0.10830
C237        C  0.35186935  0.27143446  0.98653088    -0.09270
C238        C  0.38062956  0.27083011  0.98684473    -0.10830
C239        C  0.23545374  0.38425862  0.98941085    -0.09270
C240        C  0.23753826  0.41346544  0.97580653    -0.10830
C241        C  0.25110081  0.17091630  0.98094151    -0.09270
C242        C  0.25451177  0.14448610  0.99470087    -0.10830
C243        C  0.10933372  0.38458277  0.98979667    -0.09270
C244        C  0.13597832  0.41421118  0.97647180    -0.10830
C245        C  0.38172301  0.16957168  0.98046193    -0.09270
C246        C  0.35161682  0.14345168  0.99397368    -0.10830
C247        C  0.33981950  0.02892544  0.65144894    -0.09270
C248        C  0.36414943  0.02946294  0.68606894    -0.10830
C249        C  0.34580773  0.03721995  0.83030216    -0.09270
C250        C  0.36790060  0.03567230  0.79296096    -0.10830
C251        C  0.34306989  0.37669997  0.65414306    -0.09270
C252        C  0.36708591  0.40055947  0.69040059    -0.10830
C253        C  0.36454865  0.40287055  0.79724832    -0.09270
C254        C  0.34070516  0.38057524  0.83320904    -0.10830
C255        C  0.39247230  0.46462856  0.74299329    -0.09270
C256        C  0.39200913  0.49548087  0.74140775    -0.10830
C257        C  0.99480017  0.39992140  0.69122976    -0.09270
C258        C  0.99481707  0.37587244  0.65504660    -0.10830
C259        C  0.49922004  0.40231868  0.79819586    -0.09270
C260        C  0.50063795  0.37991244  0.83410299    -0.10830
C261        C  0.42890313  0.42747317  0.74783746    -0.09270
C262        C  0.45986398  0.42722600  0.74809176    -0.10830
C263        C  0.15010551  0.02916185  0.65245902    -0.09270
C264        C  0.12620523  0.02947272  0.68715159    -0.10830
C265        C  0.15203384  0.03773651  0.83135734    -0.09270
C266        C  0.12838329  0.03584710  0.79393112    -0.10830
C267        C  0.03326018  0.46420391  0.74381143    -0.09270
C268        C  0.06433037  0.49531613  0.74231923    -0.10830
C269        C  0.15251858  0.18652258  0.64960137    -0.09270
C270        C  0.12837130  0.16215221  0.68263157    -0.10830
C271        C  0.14501341  0.18685051  0.82801909    -0.09270
C272        C  0.12366388  0.16316887  0.78906156    -0.10830
C273        C  0.10088390  0.09966524  0.73517549    -0.09270
C274        C  0.10077038  0.06860595  0.73674636    -0.10830
C275        C  0.99527033  0.16151425  0.68214237    -0.09270
C276        C  0.99552321  0.18580643  0.64905251    -0.10830
C277        C  0.50347032  0.18654832  0.82742460    -0.09270
C278        C  0.50082163  0.16273993  0.78844411    -0.10830
C279        C  0.06369942  0.13494896  0.72906549    -0.09270
C280        C  0.03271982  0.13461430  0.72888426    -0.10830
C281        C  0.42869533  0.06853354  0.73609990    -0.09300
C282        C  0.45995773  0.09927303  0.73473787    -0.10830
C283        C  0.49698695  0.63830505  0.23309000     0.01510
C284        C  0.10319306  0.63884741  0.23357339     0.01510
C285        C  0.10375864  0.53217564  0.23998032     0.01510
C286        C  0.99666946  0.92450470  0.24564581     0.01510
C287        C  0.38947990  0.92499715  0.24487189     0.01510
C288        C  0.38916777  0.53218381  0.23895817     0.01510
O289        O  0.20896423  0.53746279  0.37016446    -0.76130
O290        O  0.31241532  0.59775778  0.06214139    -0.76160
O291        O  0.23580806  0.58307197  0.46349262    -0.76170
O292        O  0.32707608  0.52775820  0.43241970    -0.76110
O293        O  0.24665308  0.59819757  0.06271961    -0.76230
O294        O  0.28853828  0.53689805  0.36947159    -0.76150
O295        O  0.30777902  0.58249302  0.46290145    -0.76130
O296        O  0.16157417  0.52897239  0.43362532    -0.76170
C297        C  0.17530873  0.53468448  0.37994741     1.13560
C298        C  0.32170218  0.60684433  0.50678638     1.13440
C299        C  0.24675086  0.60745810  0.50740685     1.13580
C300        C  0.31928746  0.53386211  0.37892375     1.13460
O301        O  0.24226558  0.96192095  0.41652826    -0.76140
O302        O  0.20736476  0.52704335  0.12736993    -0.76210
O303        O  0.16748784  0.97752287  0.50729260    -0.76150
O304        O  0.32383609  0.54181871  0.05485660    -0.76130
O305        O  0.28025734  0.52671148  0.12694124    -0.76180
O306        O  0.17952389  0.96249470  0.41686544    -0.76150
O307        O  0.26955995  0.97677870  0.50664319    -0.76100
O308        O  0.17911636  0.54279111  0.05601274    -0.76170
Co309      Co  0.23270424  0.00534744  0.40763450     1.51530
Co310      Co  0.26002684  0.55920073  0.09012975     1.51690
Co311      Co  0.20087599  0.52937467  0.48230801     1.51570
Co312      Co  0.28852062  0.52870379  0.48166366     1.51470
O313        O  0.24245589  0.52452436  0.50960588    -1.38070
C314        C  0.24987864  0.95205365  0.46627682     1.13480
C315        C  0.17991532  0.53246681  0.11037009     1.13570
C316        C  0.16215846  0.95274986  0.46678659     1.13510
C317        C  0.31300524  0.53189658  0.10949511     1.13480
O318        O  0.99609436  0.69630624  0.43082534    -0.76130
O319        O  0.04761757  0.84298861  0.46127705    -0.76160
O320        O  0.50108758  0.82255025  0.37044288    -0.76170
O321        O  0.06467190  0.78251535  0.05951770    -0.76110
O322        O  0.99210035  0.86132203  0.43623653    -0.76230
O323        O  0.05042751  0.77081234  0.46038792    -0.76150
O324        O  0.06368063  0.84814504  0.05993695    -0.76130
O325        O  0.50395843  0.74377243  0.36952636    -0.76170
C326        C  0.50120182  0.71000057  0.37758852     1.13560
C327        C  0.07225794  0.85642928  0.50406357     1.13440
C328        C  0.49775726  0.85333645  0.38169263     1.13580
C329        C  0.07450373  0.78265960  0.00398174     1.13460
O330        O  0.01000691  0.71472992  0.05346151    -0.76140
O331        O  0.44353157  0.80401595  0.51392201    -0.76210
O332        O  0.42920325  0.71296096  0.41887288    -0.76150
O333        O  0.99318939  0.81637021  0.12808915    -0.76130
O334        O  0.50849701  0.85993757  0.05737031    -0.76180
O335        O  0.44508814  0.70244009  0.00800909    -0.76150
O336        O  0.99392369  0.74347391  0.12641909    -0.76100
O337        O  0.42798363  0.77561929  0.42387923    -0.76170
Co338      Co  0.99667711  0.73594638  0.48105348     1.51530
Co339      Co  0.49451425  0.82344048  0.48392293     1.51690
Co340      Co  0.47123579  0.76674053  0.40935810     1.51570
Co341      Co  0.02573856  0.79602172  0.08917461     1.51470
O342        O  0.99145268  0.77769552  0.50991113    -1.38070
C343        C  0.99938389  0.71579241  0.10819573     1.13480
C344        C  0.41861756  0.78280977  0.47542747     1.13570
C345        C  0.41997333  0.69609173  0.46886555     1.13510
C346        C  0.99839473  0.84919295  0.11189836     1.13480
O347        O  0.20200312  0.74411164  0.36955170    -0.76130
O348        O  0.24614006  0.84887359  0.05971216    -0.76160
O349        O  0.18241879  0.77111958  0.46049472    -0.76170
O350        O  0.33094176  0.86246730  0.43545842    -0.76110
O351        O  0.17976211  0.78300752  0.05955450    -0.76230
O352        O  0.28317050  0.82331127  0.37011826    -0.76150
O353        O  0.25707200  0.84376884  0.46105115    -0.76130
O354        O  0.16278793  0.69666590  0.43122243    -0.76170
C355        C  0.17107557  0.71032290  0.37792018     1.13560
C356        C  0.24551782  0.85692140  0.50388717     1.13440
C357        C  0.17002298  0.78291443  0.00403747     1.13580
C358        C  0.31719370  0.85422453  0.38104878     1.13460
O359        O  0.31012876  0.77708803  0.42314359    -0.76140
O360        O  0.21171929  0.74431993  0.12658636    -0.76210
O361        O  0.22020264  0.70348577  0.00830178    -0.76150
O362        O  0.31321220  0.86099131  0.05681342    -0.76130
O363        O  0.28515413  0.81733182  0.12753204    -0.76180
O364        O  0.24668190  0.71403511  0.41907817    -0.76150
O365        O  0.32280700  0.80546200  0.51316667    -0.76100
O366        O  0.16705924  0.71525820  0.05375189    -0.76170
Co367      Co  0.25778517  0.76760960  0.40912430     1.51530
Co368      Co  0.23224820  0.79681063  0.08903216     1.51690
Co369      Co  0.20168678  0.73659491  0.48122809     1.51570
Co370      Co  0.29092062  0.82454276  0.48343948     1.51470
O371        O  0.24847132  0.77864730  0.50972342    -1.38070
C372        C  0.32650367  0.78416554  0.47471248     1.13480
C373        C  0.17865808  0.71648868  0.10853293     1.13570
C374        C  0.23919009  0.69730601  0.46919953     1.13510
C375        C  0.31269799  0.85015462  0.11120681     1.13480
C376        C  0.14190732  0.79270435  0.99172202    -0.09270
C377        C  0.11247962  0.79263807  0.99169516    -0.10830
C378        C  0.35177014  0.77123233  0.48650984    -0.09270
C379        C  0.38051588  0.77059969  0.48681867    -0.10830
C380        C  0.23558935  0.88430770  0.48942050    -0.09270
C381        C  0.23766988  0.91351458  0.47582891    -0.10830
C382        C  0.25113495  0.67092602  0.48092161    -0.09270
C383        C  0.25455277  0.64450219  0.49469485    -0.10830
C384        C  0.10923854  0.88461665  0.48974094    -0.09270
C385        C  0.13591411  0.91423877  0.47646575    -0.10830
C386        C  0.38168620  0.66961933  0.48046721    -0.09270
C387        C  0.35158555  0.64350792  0.49400594    -0.10830
C388        C  0.33977753  0.52890010  0.15142095    -0.09270
C389        C  0.36411584  0.52944815  0.18603459    -0.10830
C390        C  0.34582812  0.53724259  0.33029491    -0.09270
C391        C  0.36789984  0.53567856  0.29292871    -0.10830
C392        C  0.34301820  0.87670463  0.15412646    -0.09270
C393        C  0.36705474  0.90055717  0.19036715    -0.10830
C394        C  0.36456118  0.90287484  0.29721935    -0.09270
C395        C  0.34074001  0.88057365  0.33319770    -0.10830
C396        C  0.39245489  0.96462532  0.24295177    -0.09270
C397        C  0.39198745  0.99547452  0.24136394    -0.10830
C398        C  0.99482685  0.89994863  0.19122975    -0.09270
C399        C  0.99487481  0.87591029  0.15506154    -0.10830
C400        C  0.49917166  0.90230558  0.29819326    -0.09270
C401        C  0.50055486  0.87987485  0.33408694    -0.10830
C402        C  0.42889389  0.92747920  0.24776295    -0.09270
C403        C  0.45985608  0.92723575  0.24803540    -0.10830
C404        C  0.15007819  0.52914703  0.15246418    -0.09270
C405        C  0.12619285  0.52946499  0.18718392    -0.10830
C406        C  0.15205755  0.53773536  0.33138658    -0.09270
C407        C  0.12840039  0.53584400  0.29396979    -0.10830
C408        C  0.03325739  0.96421148  0.24386183    -0.09270
C409        C  0.06433234  0.99531954  0.24238440    -0.10830
C410        C  0.15249028  0.68650341  0.14960810    -0.09270
C411        C  0.12835430  0.66213562  0.18265334    -0.10830
C412        C  0.14502667  0.68686614  0.32802929    -0.09270
C413        C  0.12366768  0.66317777  0.28908574    -0.10830
C414        C  0.10088727  0.59966331  0.23523134    -0.09270
C415        C  0.10077768  0.56860622  0.23680817    -0.10830
C416        C  0.99527694  0.66150698  0.18212919    -0.09270
C417        C  0.99553866  0.68581068  0.14905802    -0.10830
C418        C  0.50343433  0.68651561  0.32740091    -0.09270
C419        C  0.50079208  0.66270801  0.28842613    -0.10830
C420        C  0.06369142  0.63493436  0.22910073    -0.09270
C421        C  0.03270941  0.63459460  0.22889528    -0.10830
C422        C  0.42867650  0.56852032  0.23603351    -0.09300
C423        C  0.45994312  0.59925492  0.23468357    -0.10830
C424        C  0.49699868  0.63832548  0.73311053     0.01510
C425        C  0.10319752  0.63885351  0.73353513     0.01510
C426        C  0.10375384  0.53217709  0.73992671     0.01510
C427        C  0.99667746  0.92449540  0.74564710     0.01510
C428        C  0.38949125  0.92499640  0.74492046     0.01510
C429        C  0.38918805  0.53219102  0.73900587     0.01510
O430        O  0.20893882  0.53746712  0.87014241    -0.76130
O431        O  0.31244830  0.59778426  0.56217705    -0.76160
O432        O  0.23575769  0.58305657  0.96348088    -0.76170
O433        O  0.32700724  0.52768697  0.93239950    -0.76110
O434        O  0.24668951  0.59821874  0.56273167    -0.76230
O435        O  0.28850712  0.53687465  0.86944138    -0.76150
O436        O  0.30774924  0.58245453  0.96286884    -0.76130
O437        O  0.16153062  0.52894657  0.93359025    -0.76170
C438        C  0.17527753  0.53467754  0.87991881     1.13560
C439        C  0.32168994  0.60680657  0.00675091     1.13440
C440        C  0.24671007  0.60744042  0.00739921     1.13580
C441        C  0.31924502  0.53382036  0.87890619     1.13460
O442        O  0.24220908  0.96189915  0.91648798    -0.76140
O443        O  0.20740007  0.52706330  0.62739232    -0.76210
O444        O  0.16745867  0.97749981  0.00726205    -0.76150
O445        O  0.32389092  0.54186874  0.55489288    -0.76130
O446        O  0.28030106  0.52673943  0.62696849    -0.76180
O447        O  0.17948461  0.96249775  0.91681095    -0.76150
O448        O  0.26946784  0.97672944  0.00662733    -0.76100
O449        O  0.17916483  0.54282060  0.55602883    -0.76170
Co450      Co  0.23266797  0.00534004  0.90759773     1.51530
Co451      Co  0.26006353  0.55922259  0.59015636     1.51690
Co452      Co  0.20083147  0.52935499  0.98228391     1.51570
Co453      Co  0.28846205  0.52865884  0.98163651     1.51470
O454        O  0.24241359  0.52451026  0.00957490    -1.38070
C455        C  0.24978479  0.95201328  0.96625075     1.13480
C456        C  0.17995370  0.53248954  0.61038395     1.13570
C457        C  0.16215114  0.95273473  0.96675511     1.13510
C458        C  0.31305297  0.53193254  0.60952558     1.13480
O459        O  0.99614345  0.69634123  0.93085668    -0.76130
O460        O  0.04771165  0.84298646  0.96132596    -0.76160
O461        O  0.50115621  0.82258672  0.87048620    -0.76170
O462        O  0.06464548  0.78251995  0.55948937    -0.76110
O463        O  0.99227553  0.86142675  0.93628614    -0.76230
O464        O  0.05045046  0.77085006  0.96041581    -0.76150
O465        O  0.06360862  0.84813529  0.55987913    -0.76130
O466        O  0.50398086  0.74379650  0.86955926    -0.76170
C467        C  0.50123844  0.71003126  0.87761917     1.13560
C468        C  0.07234516  0.85642199  0.00412117     1.13440
C469        C  0.49787249  0.85339996  0.88173289     1.13580
C470        C  0.07447980  0.78263525  0.50396092     1.13460
O471        O  0.00997558  0.71470718  0.55343697    -0.76140
O472        O  0.44364665  0.80415986  0.01393463    -0.76210
O473        O  0.42921893  0.71300571  0.91893019    -0.76150
O474        O  0.99312487  0.81633168  0.62804810    -0.76130
O475        O  0.50837335  0.85987947  0.55731667    -0.76180
O476        O  0.44505328  0.70243438  0.50799242    -0.76150
O477        O  0.99389716  0.74345974  0.62638715    -0.76100
O478        O  0.42804522  0.77569419  0.92393877    -0.76170
Co479      Co  0.99670971  0.73597410  0.98108320     1.51530
Co480      Co  0.49462093  0.82350636  0.98396151     1.51690
Co481      Co  0.47127373  0.76678008  0.90940943     1.51570
Co482      Co  0.02569421  0.79600720  0.58913097     1.51470
O483        O  0.99148374  0.77772370  0.00996047    -1.38070
C484        C  0.99935942  0.71577823  0.60817322     1.13480
C485        C  0.41871399  0.78296380  0.97545850     1.13570
C486        C  0.42000294  0.69609490  0.96889012     1.13510
C487        C  0.99830793  0.84914610  0.61185924     1.13480
O488        O  0.20197909  0.74409686  0.86955613    -0.76130
O489        O  0.24623417  0.84889493  0.55971620    -0.76160
O490        O  0.18237624  0.77109465  0.96048392    -0.76170
O491        O  0.33086018  0.86251174  0.93548734    -0.76110
O492        O  0.17982589  0.78304948  0.55956634    -0.76230
O493        O  0.28312948  0.82331038  0.87012323    -0.76150
O494        O  0.25696844  0.84374452  0.96104408    -0.76130
O495        O  0.16275822  0.69664739  0.93121915    -0.76170
C496        C  0.17105297  0.71030602  0.87791820     1.13560
C497        C  0.24540957  0.85689188  0.00388140     1.13440
C498        C  0.17006050  0.78293175  0.50405451     1.13580
C499        C  0.31713851  0.85424124  0.88106441     1.13460
O500        O  0.31011098  0.77711434  0.92318906    -0.76140
O501        O  0.21176036  0.74433094  0.62658624    -0.76210
O502        O  0.22023711  0.70349508  0.50829029    -0.76150
O503        O  0.31330439  0.86097170  0.55679876    -0.76130
O504        O  0.28521523  0.81732378  0.62752652    -0.76180
O505        O  0.24667454  0.71404413  0.91910892    -0.76150
O506        O  0.32277919  0.80553699  0.01317840    -0.76100
O507        O  0.16710027  0.71528151  0.55375015    -0.76170
Co508      Co  0.25775977  0.76761173  0.90914395     1.51530
Co509      Co  0.23231115  0.79682578  0.58903126     1.51690
Co510      Co  0.20164820  0.73657950  0.98123149     1.51570
Co511      Co  0.29085060  0.82456288  0.98344728     1.51470
O512        O  0.24842789  0.77864332  0.00973293    -1.38070
C513        C  0.32652006  0.78426311  0.97473830     1.13480
C514        C  0.17869567  0.71650675  0.60853084     1.13570
C515        C  0.23916643  0.69730449  0.96922189     1.13510
C516        C  0.31276921  0.85014147  0.61120293     1.13480
C517        C  0.14189586  0.79266433  0.49175481    -0.09270
C518        C  0.11245593  0.79258116  0.49170447    -0.10830
C519        C  0.35186935  0.77143445  0.98653088    -0.09270
C520        C  0.38062956  0.77083011  0.98684473    -0.10830
C521        C  0.23545376  0.88425863  0.98941084    -0.09270
C522        C  0.23753828  0.91346546  0.97580653    -0.10830
C523        C  0.25110080  0.67091629  0.98094150    -0.09270
C524        C  0.25451176  0.64448610  0.99470087    -0.10830
C525        C  0.10933371  0.88458278  0.98979666    -0.09270
C526        C  0.13597831  0.91421119  0.97647180    -0.10830
C527        C  0.38172301  0.66957167  0.98046193    -0.09270
C528        C  0.35161683  0.64345167  0.99397367    -0.10830
C529        C  0.33981950  0.52892544  0.65144894    -0.09270
C530        C  0.36414943  0.52946294  0.68606894    -0.10830
C531        C  0.34580772  0.53721994  0.83030216    -0.09270
C532        C  0.36790060  0.53567230  0.79296095    -0.10830
C533        C  0.34306989  0.87669997  0.65414306    -0.09270
C534        C  0.36708591  0.90055947  0.69040059    -0.10830
C535        C  0.36454865  0.90287055  0.79724832    -0.09270
C536        C  0.34070516  0.88057524  0.83320904    -0.10830
C537        C  0.39247231  0.96462857  0.74299329    -0.09270
C538        C  0.39200913  0.99548087  0.74140775    -0.10830
C539        C  0.99480018  0.89992141  0.69122976    -0.09270
C540        C  0.99481707  0.87587244  0.65504660    -0.10830
C541        C  0.49922004  0.90231868  0.79819586    -0.09270
C542        C  0.50063795  0.87991244  0.83410299    -0.10830
C543        C  0.42890313  0.92747318  0.74783746    -0.09270
C544        C  0.45986399  0.92722600  0.74809176    -0.10830
C545        C  0.15010551  0.52916184  0.65245902    -0.09270
C546        C  0.12620523  0.52947272  0.68715159    -0.10830
C547        C  0.15203384  0.53773650  0.83135733    -0.09270
C548        C  0.12838328  0.53584710  0.79393112    -0.10830
C549        C  0.03326018  0.96420391  0.74381144    -0.09270
C550        C  0.06433038  0.99531613  0.74231924    -0.10830
C551        C  0.15251858  0.68652259  0.64960137    -0.09270
C552        C  0.12837130  0.66215221  0.68263157    -0.10830
C553        C  0.14501341  0.68685051  0.82801909    -0.09270
C554        C  0.12366388  0.66316887  0.78906156    -0.10830
C555        C  0.10088390  0.59966524  0.73517549    -0.09270
C556        C  0.10077038  0.56860595  0.73674636    -0.10830
C557        C  0.99527033  0.66151424  0.68214237    -0.09270
C558        C  0.99552321  0.68580643  0.64905252    -0.10830
C559        C  0.50347032  0.68654832  0.82742460    -0.09270
C560        C  0.50082163  0.66273993  0.78844411    -0.10830
C561        C  0.06369942  0.63494896  0.72906549    -0.09270
C562        C  0.03271982  0.63461430  0.72888426    -0.10830
C563        C  0.42869533  0.56853354  0.73609990    -0.09300
C564        C  0.45995773  0.59927302  0.73473787    -0.10830
C565        C  0.99698696  0.13830505  0.23309000     0.01510
C566        C  0.60319306  0.13884741  0.23357339     0.01510
C567        C  0.60375864  0.03217565  0.23998032     0.01510
C568        C  0.49666945  0.42450470  0.24564581     0.01510
C569        C  0.88947990  0.42499714  0.24487189     0.01510
C570        C  0.88916777  0.03218382  0.23895817     0.01510
O571        O  0.70896423  0.03746280  0.37016447    -0.76130
O572        O  0.81241532  0.09775779  0.06214140    -0.76160
O573        O  0.73580806  0.08307197  0.46349263    -0.76170
O574        O  0.82707608  0.02775821  0.43241971    -0.76110
O575        O  0.74665309  0.09819758  0.06271962    -0.76230
O576        O  0.78853829  0.03689806  0.36947160    -0.76150
O577        O  0.80777902  0.08249303  0.46290145    -0.76130
O578        O  0.66157418  0.02897240  0.43362533    -0.76170
C579        C  0.67530873  0.03468449  0.37994742     1.13560
C580        C  0.82170218  0.10684434  0.50678638     1.13440
C581        C  0.74675087  0.10745811  0.50740686     1.13580
C582        C  0.81928747  0.03386212  0.37892375     1.13460
O583        O  0.74226557  0.46192094  0.41652826    -0.76140
O584        O  0.70736477  0.02704335  0.12736994    -0.76210
O585        O  0.66748784  0.47752286  0.50729260    -0.76150
O586        O  0.82383610  0.04181872  0.05485661    -0.76130
O587        O  0.78025735  0.02671149  0.12694124    -0.76180
O588        O  0.67952389  0.46249470  0.41686544    -0.76150
O589        O  0.76955995  0.47677869  0.50664319    -0.76100
O590        O  0.67911636  0.04279111  0.05601275    -0.76170
Co591      Co  0.73270424  0.50534743  0.40763449     1.51530
Co592      Co  0.76002685  0.05920073  0.09012976     1.51690
Co593      Co  0.70087599  0.02937468  0.48230801     1.51570
Co594      Co  0.78852063  0.02870379  0.48166367     1.51470
O595        O  0.74245589  0.02452436  0.50960589    -1.38070
C596        C  0.74987864  0.45205364  0.46627682     1.13480
C597        C  0.67991533  0.03246682  0.11037010     1.13570
C598        C  0.66215846  0.45274985  0.46678659     1.13510
C599        C  0.81300525  0.03189659  0.10949512     1.13480
O600        O  0.49609436  0.19630625  0.43082534    -0.76130
O601        O  0.54761757  0.34298862  0.46127705    -0.76160
O602        O  0.00108758  0.32255025  0.37044287    -0.76170
O603        O  0.56467190  0.28251535  0.05951770    -0.76110
O604        O  0.49210035  0.36132203  0.43623653    -0.76230
O605        O  0.55042751  0.27081234  0.46038792    -0.76150
O606        O  0.56368062  0.34814504  0.05993695    -0.76130
O607        O  0.00395844  0.24377243  0.36952636    -0.76170
C608        C  0.00120182  0.21000057  0.37758852     1.13560
C609        C  0.57225794  0.35642928  0.50406358     1.13440
C610        C  0.99775726  0.35333645  0.38169263     1.13580
C611        C  0.57450373  0.28265960  0.00398175     1.13460
O612        O  0.51000691  0.21472992  0.05346151    -0.76140
O613        O  0.94353156  0.30401595  0.51392201    -0.76210
O614        O  0.92920325  0.21296096  0.41887288    -0.76150
O615        O  0.49318939  0.31637021  0.12808915    -0.76130
O616        O  0.00849701  0.35993757  0.05737031    -0.76180
O617        O  0.94508814  0.20244009  0.00800908    -0.76150
O618        O  0.49392368  0.24347391  0.12641909    -0.76100
O619        O  0.92798363  0.27561929  0.42387922    -0.76170
Co620      Co  0.49667711  0.23594639  0.48105348     1.51530
Co621      Co  0.99451425  0.32344048  0.48392293     1.51690
Co622      Co  0.97123579  0.26674053  0.40935810     1.51570
Co623      Co  0.52573856  0.29602172  0.08917461     1.51470
O624        O  0.49145268  0.27769552  0.50991113    -1.38070
C625        C  0.49938389  0.21579241  0.10819573     1.13480
C626        C  0.91861756  0.28280977  0.47542746     1.13570
C627        C  0.91997333  0.19609173  0.46886554     1.13510
C628        C  0.49839473  0.34919295  0.11189836     1.13480
O629        O  0.70200312  0.24411164  0.36955170    -0.76130
O630        O  0.74614006  0.34887358  0.05971216    -0.76160
O631        O  0.68241878  0.27111958  0.46049473    -0.76170
O632        O  0.83094176  0.36246730  0.43545842    -0.76110
O633        O  0.67976210  0.28300752  0.05955450    -0.76230
O634        O  0.78317049  0.32331127  0.37011826    -0.76150
O635        O  0.75707200  0.34376883  0.46105116    -0.76130
O636        O  0.66278792  0.19666590  0.43122243    -0.76170
C637        C  0.67107557  0.21032290  0.37792018     1.13560
C638        C  0.74551781  0.35692140  0.50388718     1.13440
C639        C  0.67002298  0.28291443  0.00403747     1.13580
C640        C  0.81719370  0.35422453  0.38104878     1.13460
O641        O  0.81012875  0.27708803  0.42314358    -0.76140
O642        O  0.71171928  0.24431993  0.12658637    -0.76210
O643        O  0.72020263  0.20348576  0.00830178    -0.76150
O644        O  0.81321220  0.36099131  0.05681342    -0.76130
O645        O  0.78515413  0.31733181  0.12753204    -0.76180
O646        O  0.74668189  0.21403511  0.41907816    -0.76150
O647        O  0.82280700  0.30546199  0.51316667    -0.76100
O648        O  0.66705923  0.21525820  0.05375189    -0.76170
Co649      Co  0.75778516  0.26760960  0.40912430     1.51530
Co650      Co  0.73224820  0.29681062  0.08903216     1.51690
Co651      Co  0.70168677  0.23659491  0.48122810     1.51570
Co652      Co  0.79092062  0.32454276  0.48343948     1.51470
O653        O  0.74847132  0.27864729  0.50972342    -1.38070
C654        C  0.82650367  0.28416553  0.47471247     1.13480
C655        C  0.67865808  0.21648868  0.10853293     1.13570
C656        C  0.73919009  0.19730601  0.46919953     1.13510
C657        C  0.81269799  0.35015461  0.11120681     1.13480
C658        C  0.64190732  0.29270435  0.99172202    -0.09270
C659        C  0.61247962  0.29263807  0.99169516    -0.10830
C660        C  0.85177013  0.27123233  0.48650983    -0.09270
C661        C  0.88051588  0.27059969  0.48681866    -0.10830
C662        C  0.73558934  0.38430769  0.48942050    -0.09270
C663        C  0.73766987  0.41351457  0.47582891    -0.10830
C664        C  0.75113495  0.17092603  0.48092161    -0.09270
C665        C  0.75455277  0.14450220  0.49469485    -0.10830
C666        C  0.60923854  0.38461665  0.48974095    -0.09270
C667        C  0.63591411  0.41423876  0.47646575    -0.10830
C668        C  0.88168620  0.16961933  0.48046721    -0.09270
C669        C  0.85158556  0.14350793  0.49400595    -0.10830
C670        C  0.83977754  0.02890011  0.15142095    -0.09270
C671        C  0.86411585  0.02944815  0.18603459    -0.10830
C672        C  0.84582813  0.03724260  0.33029492    -0.09270
C673        C  0.86789984  0.03567856  0.29292871    -0.10830
C674        C  0.84301819  0.37670463  0.15412646    -0.09270
C675        C  0.86705474  0.40055717  0.19036715    -0.10830
C676        C  0.86456117  0.40287484  0.29721935    -0.09270
C677        C  0.84074000  0.38057365  0.33319770    -0.10830
C678        C  0.89245489  0.46462531  0.24295177    -0.09270
C679        C  0.89198745  0.49547452  0.24136394    -0.10830
C680        C  0.49482684  0.39994863  0.19122975    -0.09270
C681        C  0.49487481  0.37591029  0.15506154    -0.10830
C682        C  0.99917166  0.40230558  0.29819326    -0.09270
C683        C  0.00055486  0.37987485  0.33408694    -0.10830
C684        C  0.92889388  0.42747919  0.24776295    -0.09270
C685        C  0.95985607  0.42723575  0.24803540    -0.10830
C686        C  0.65007820  0.02914703  0.15246418    -0.09270
C687        C  0.62619286  0.02946499  0.18718393    -0.10830
C688        C  0.65205755  0.03773537  0.33138659    -0.09270
C689        C  0.62840039  0.03584400  0.29396979    -0.10830
C690        C  0.53325739  0.46421148  0.24386183    -0.09270
C691        C  0.56433234  0.49531954  0.24238440    -0.10830
C692        C  0.65249028  0.18650341  0.14960810    -0.09270
C693        C  0.62835430  0.16213562  0.18265334    -0.10830
C694        C  0.64502666  0.18686614  0.32802929    -0.09270
C695        C  0.62366767  0.16317777  0.28908574    -0.10830
C696        C  0.60088727  0.09966331  0.23523135    -0.09270
C697        C  0.60077768  0.06860622  0.23680817    -0.10830
C698        C  0.49527694  0.16150698  0.18212919    -0.09270
C699        C  0.49553866  0.18581068  0.14905802    -0.10830
C700        C  0.00343433  0.18651561  0.32740090    -0.09270
C701        C  0.00079208  0.16270801  0.28842612    -0.10830
C702        C  0.56369142  0.13493436  0.22910073    -0.09270
C703        C  0.53270941  0.13459461  0.22889528    -0.10830
C704        C  0.92867651  0.06852032  0.23603352    -0.09300
C705        C  0.95994312  0.09925492  0.23468357    -0.10830
C706        C  0.99699868  0.13832548  0.73311053     0.01510
C707        C  0.60319752  0.13885351  0.73353513     0.01510
C708        C  0.60375385  0.03217709  0.73992672     0.01510
C709        C  0.49667745  0.42449541  0.74564710     0.01510
C710        C  0.88949125  0.42499640  0.74492046     0.01510
C711        C  0.88918805  0.03219102  0.73900588     0.01510
O712        O  0.70893883  0.03746713  0.87014242    -0.76130
O713        O  0.81244831  0.09778427  0.56217705    -0.76160
O714        O  0.73575770  0.08305658  0.96348089    -0.76170
O715        O  0.82700726  0.02768699  0.93239950    -0.76110
O716        O  0.74668951  0.09821875  0.56273167    -0.76230
O717        O  0.78850713  0.03687466  0.86944139    -0.76150
O718        O  0.80774924  0.08245454  0.96286884    -0.76130
O719        O  0.66153063  0.02894658  0.93359026    -0.76170
C720        C  0.67527754  0.03467755  0.87991882     1.13560
C721        C  0.82168994  0.10680658  0.00675091     1.13440
C722        C  0.74671008  0.10744043  0.00739921     1.13580
C723        C  0.81924503  0.03382037  0.87890619     1.13460
O724        O  0.74220907  0.46189915  0.91648798    -0.76140
O725        O  0.70740008  0.02706331  0.62739233    -0.76210
O726        O  0.66745867  0.47749981  0.00726204    -0.76150
O727        O  0.82389093  0.04186875  0.55489288    -0.76130
O728        O  0.78030107  0.02673944  0.62696849    -0.76180
O729        O  0.67948461  0.46249775  0.91681094    -0.76150
O730        O  0.76946783  0.47672943  0.00662733    -0.76100
O731        O  0.67916483  0.04282060  0.55602884    -0.76170
Co732      Co  0.73266797  0.50534004  0.90759772     1.51530
Co733      Co  0.76006354  0.05922260  0.59015636     1.51690
Co734      Co  0.70083148  0.02935500  0.98228391     1.51570
Co735      Co  0.78846206  0.02865885  0.98163652     1.51470
O736        O  0.74241360  0.02451026  0.00957491    -1.38070
C737        C  0.74978478  0.45201327  0.96625075     1.13480
C738        C  0.67995370  0.03248954  0.61038396     1.13570
C739        C  0.66215114  0.45273473  0.96675510     1.13510
C740        C  0.81305298  0.03193254  0.60952558     1.13480
O741        O  0.49614344  0.19634124  0.93085668    -0.76130
O742        O  0.54771164  0.34298646  0.96132596    -0.76160
O743        O  0.00115622  0.32258672  0.87048620    -0.76170
O744        O  0.56464547  0.28251995  0.55948937    -0.76110
O745        O  0.49227553  0.36142675  0.93628614    -0.76230
O746        O  0.55045046  0.27085006  0.96041581    -0.76150
O747        O  0.56360862  0.34813529  0.55987913    -0.76130
O748        O  0.00398086  0.24379651  0.86955925    -0.76170
C749        C  0.00123845  0.21003126  0.87761917     1.13560
C750        C  0.57234516  0.35642199  0.00412117     1.13440
C751        C  0.99787249  0.35339997  0.88173289     1.13580
C752        C  0.57447980  0.28263526  0.50396092     1.13460
O753        O  0.50997558  0.21470718  0.55343697    -0.76140
O754        O  0.94364665  0.30415986  0.01393462    -0.76210
O755        O  0.92921893  0.21300571  0.91893018    -0.76150
O756        O  0.49312487  0.31633168  0.62804809    -0.76130
O757        O  0.00837334  0.35987947  0.55731667    -0.76180
O758        O  0.94505328  0.20243438  0.50799242    -0.76150
O759        O  0.49389716  0.24345974  0.62638715    -0.76100
O760        O  0.92804522  0.27569419  0.92393877    -0.76170
Co761      Co  0.49670971  0.23597410  0.98108320     1.51530
Co762      Co  0.99462093  0.32350636  0.98396151     1.51690
Co763      Co  0.97127374  0.26678008  0.90940943     1.51570
Co764      Co  0.52569420  0.29600720  0.58913098     1.51470
O765        O  0.49148373  0.27772370  0.00996047    -1.38070
C766        C  0.49935942  0.21577823  0.60817322     1.13480
C767        C  0.91871399  0.28296380  0.97545849     1.13570
C768        C  0.92000294  0.19609490  0.96889011     1.13510
C769        C  0.49830793  0.34914610  0.61185924     1.13480
O770        O  0.70197908  0.24409685  0.86955614    -0.76130
O771        O  0.74623417  0.34889493  0.55971620    -0.76160
O772        O  0.68237623  0.27109465  0.96048392    -0.76170
O773        O  0.83086018  0.36251174  0.93548734    -0.76110
O774        O  0.67982589  0.28304948  0.55956635    -0.76230
O775        O  0.78312947  0.32331038  0.87012323    -0.76150
O776        O  0.75696844  0.34374452  0.96104408    -0.76130
O777        O  0.66275822  0.19664738  0.93121915    -0.76170
C778        C  0.67105297  0.21030601  0.87791820     1.13560
C779        C  0.74540956  0.35689187  0.00388140     1.13440
C780        C  0.67006049  0.28293175  0.50405452     1.13580
C781        C  0.81713851  0.35424124  0.88106441     1.13460
O782        O  0.81011097  0.27711434  0.92318906    -0.76140
O783        O  0.71176036  0.24433094  0.62658624    -0.76210
O784        O  0.72023711  0.20349508  0.50829029    -0.76150
O785        O  0.81330439  0.36097169  0.55679876    -0.76130
O786        O  0.78521523  0.31732378  0.62752652    -0.76180
O787        O  0.74667454  0.21404413  0.91910892    -0.76150
O788        O  0.82277919  0.30553699  0.01317840    -0.76100
O789        O  0.66710027  0.21528151  0.55375015    -0.76170
Co790      Co  0.75775977  0.26761173  0.90914395     1.51530
Co791      Co  0.73231115  0.29682578  0.58903127     1.51690
Co792      Co  0.70164820  0.23657950  0.98123149     1.51570
Co793      Co  0.79085060  0.32456288  0.98344728     1.51470
O794        O  0.74842788  0.27864331  0.00973293    -1.38070
C795        C  0.82652005  0.28426311  0.97473830     1.13480
C796        C  0.67869566  0.21650675  0.60853084     1.13570
C797        C  0.73916643  0.19730448  0.96922189     1.13510
C798        C  0.81276920  0.35014146  0.61120293     1.13480
C799        C  0.64189587  0.29266433  0.49175481    -0.09270
C800        C  0.61245593  0.29258116  0.49170448    -0.10830
C801        C  0.85186935  0.27143445  0.98653088    -0.09270
C802        C  0.88062956  0.27083011  0.98684473    -0.10830
C803        C  0.73545375  0.38425863  0.98941084    -0.09270
C804        C  0.73753827  0.41346545  0.97580653    -0.10830
C805        C  0.75110080  0.17091630  0.98094151    -0.09270
C806        C  0.75451176  0.14448610  0.99470087    -0.10830
C807        C  0.60933371  0.38458278  0.98979666    -0.09270
C808        C  0.63597831  0.41421118  0.97647180    -0.10830
C809        C  0.88172301  0.16957168  0.98046193    -0.09270
C810        C  0.85161683  0.14345168  0.99397367    -0.10830
C811        C  0.83981950  0.02892545  0.65144895    -0.09270
C812        C  0.86414943  0.02946294  0.68606894    -0.10830
C813        C  0.84580773  0.03721995  0.83030216    -0.09270
C814        C  0.86790060  0.03567230  0.79296096    -0.10830
C815        C  0.84306989  0.37669997  0.65414306    -0.09270
C816        C  0.86708591  0.40055947  0.69040059    -0.10830
C817        C  0.86454865  0.40287055  0.79724833    -0.09270
C818        C  0.84070516  0.38057524  0.83320905    -0.10830
C819        C  0.89247230  0.46462856  0.74299329    -0.09270
C820        C  0.89200913  0.49548087  0.74140775    -0.10830
C821        C  0.49480017  0.39992141  0.69122976    -0.09270
C822        C  0.49481707  0.37587244  0.65504660    -0.10830
C823        C  0.99922004  0.40231868  0.79819586    -0.09270
C824        C  0.00063795  0.37991244  0.83410299    -0.10830
C825        C  0.92890313  0.42747317  0.74783746    -0.09270
C826        C  0.95986398  0.42722600  0.74809176    -0.10830
C827        C  0.65010552  0.02916185  0.65245902    -0.09270
C828        C  0.62620524  0.02947272  0.68715160    -0.10830
C829        C  0.65203384  0.03773651  0.83135734    -0.09270
C830        C  0.62838329  0.03584710  0.79393113    -0.10830
C831        C  0.53326018  0.46420391  0.74381143    -0.09270
C832        C  0.56433038  0.49531613  0.74231924    -0.10830
C833        C  0.65251858  0.18652258  0.64960137    -0.09270
C834        C  0.62837130  0.16215221  0.68263157    -0.10830
C835        C  0.64501340  0.18685051  0.82801909    -0.09270
C836        C  0.62366388  0.16316887  0.78906156    -0.10830
C837        C  0.60088390  0.09966524  0.73517549    -0.09270
C838        C  0.60077038  0.06860595  0.73674636    -0.10830
C839        C  0.49527033  0.16151425  0.68214237    -0.09270
C840        C  0.49552321  0.18580643  0.64905252    -0.10830
C841        C  0.00347032  0.18654832  0.82742460    -0.09270
C842        C  0.00082164  0.16273994  0.78844411    -0.10830
C843        C  0.56369942  0.13494896  0.72906549    -0.09270
C844        C  0.53271982  0.13461430  0.72888426    -0.10830
C845        C  0.92869534  0.06853354  0.73609990    -0.09300
C846        C  0.95995774  0.09927303  0.73473787    -0.10830
C847        C  0.99698695  0.63830505  0.23309000     0.01510
C848        C  0.60319306  0.63884741  0.23357339     0.01510
C849        C  0.60375864  0.53217564  0.23998032     0.01510
C850        C  0.49666946  0.92450470  0.24564581     0.01510
C851        C  0.88947990  0.92499715  0.24487189     0.01510
C852        C  0.88916777  0.53218381  0.23895817     0.01510
O853        O  0.70896422  0.53746279  0.37016446    -0.76130
O854        O  0.81241532  0.59775779  0.06214139    -0.76160
O855        O  0.73580805  0.58307196  0.46349262    -0.76170
O856        O  0.82707607  0.52775820  0.43241970    -0.76110
O857        O  0.74665309  0.59819758  0.06271961    -0.76230
O858        O  0.78853828  0.53689805  0.36947159    -0.76150
O859        O  0.80777901  0.58249302  0.46290145    -0.76130
O860        O  0.66157417  0.52897239  0.43362532    -0.76170
C861        C  0.67530873  0.53468448  0.37994741     1.13560
C862        C  0.82170217  0.60684433  0.50678638     1.13440
C863        C  0.74675086  0.60745810  0.50740685     1.13580
C864        C  0.81928746  0.53386211  0.37892375     1.13460
O865        O  0.74226558  0.96192095  0.41652827    -0.76140
O866        O  0.70736476  0.52704335  0.12736993    -0.76210
O867        O  0.66748784  0.97752287  0.50729261    -0.76150
O868        O  0.82383609  0.54181872  0.05485660    -0.76130
O869        O  0.78025734  0.52671148  0.12694124    -0.76180
O870        O  0.67952390  0.96249471  0.41686545    -0.76150
O871        O  0.76955996  0.97677871  0.50664319    -0.76100
O872        O  0.67911636  0.54279111  0.05601274    -0.76170
Co873      Co  0.73270424  0.00534744  0.40763450     1.51530
Co874      Co  0.76002685  0.55920073  0.09012975     1.51690
Co875      Co  0.70087599  0.52937467  0.48230801     1.51570
Co876      Co  0.78852062  0.52870378  0.48166366     1.51470
O877        O  0.74245589  0.52452436  0.50960588    -1.38070
C878        C  0.74987865  0.95205365  0.46627682     1.13480
C879        C  0.67991532  0.53246681  0.11037010     1.13570
C880        C  0.66215846  0.95274986  0.46678660     1.13510
C881        C  0.81300524  0.53189658  0.10949512     1.13480
O882        O  0.49609436  0.69630624  0.43082534    -0.76130
O883        O  0.54761757  0.84298862  0.46127705    -0.76160
O884        O  0.00108758  0.82255025  0.37044287    -0.76170
O885        O  0.56467191  0.78251535  0.05951769    -0.76110
O886        O  0.49210035  0.86132203  0.43623654    -0.76230
O887        O  0.55042751  0.77081234  0.46038792    -0.76150
O888        O  0.56368063  0.84814505  0.05993695    -0.76130
O889        O  0.00395843  0.74377242  0.36952636    -0.76170
C890        C  0.00120182  0.71000056  0.37758852     1.13560
C891        C  0.57225794  0.85642928  0.50406358     1.13440
C892        C  0.99775726  0.85333645  0.38169263     1.13580
C893        C  0.57450374  0.78265961  0.00398174     1.13460
O894        O  0.51000691  0.71472993  0.05346151    -0.76140
O895        O  0.94353157  0.80401595  0.51392201    -0.76210
O896        O  0.92920325  0.71296096  0.41887288    -0.76150
O897        O  0.49318940  0.81637022  0.12808915    -0.76130
O898        O  0.00849701  0.85993757  0.05737031    -0.76180
O899        O  0.94508813  0.70244009  0.00800909    -0.76150
O900        O  0.49392369  0.74347392  0.12641909    -0.76100
O901        O  0.92798363  0.77561929  0.42387922    -0.76170
Co902      Co  0.49667711  0.73594639  0.48105348     1.51530
Co903      Co  0.99451425  0.82344048  0.48392293     1.51690
Co904      Co  0.97123579  0.76674053  0.40935810     1.51570
Co905      Co  0.52573856  0.79602172  0.08917461     1.51470
O906        O  0.49145268  0.77769552  0.50991113    -1.38070
C907        C  0.49938389  0.71579242  0.10819573     1.13480
C908        C  0.91861756  0.78280977  0.47542747     1.13570
C909        C  0.91997333  0.69609173  0.46886555     1.13510
C910        C  0.49839474  0.84919295  0.11189836     1.13480
O911        O  0.70200312  0.74411164  0.36955170    -0.76130
O912        O  0.74614006  0.84887358  0.05971216    -0.76160
O913        O  0.68241879  0.77111958  0.46049472    -0.76170
O914        O  0.83094176  0.86246730  0.43545842    -0.76110
O915        O  0.67976211  0.78300752  0.05955450    -0.76230
O916        O  0.78317049  0.82331126  0.37011826    -0.76150
O917        O  0.75707200  0.84376883  0.46105115    -0.76130
O918        O  0.66278792  0.69666590  0.43122243    -0.76170
C919        C  0.67107557  0.71032290  0.37792018     1.13560
C920        C  0.74551782  0.85692140  0.50388717     1.13440
C921        C  0.67002298  0.78291443  0.00403747     1.13580
C922        C  0.81719370  0.85422453  0.38104878     1.13460
O923        O  0.81012875  0.77708803  0.42314359    -0.76140
O924        O  0.71171929  0.74431993  0.12658636    -0.76210
O925        O  0.72020264  0.70348577  0.00830178    -0.76150
O926        O  0.81321220  0.86099131  0.05681342    -0.76130
O927        O  0.78515413  0.81733181  0.12753203    -0.76180
O928        O  0.74668189  0.71403511  0.41907817    -0.76150
O929        O  0.82280700  0.80546199  0.51316667    -0.76100
O930        O  0.66705924  0.71525820  0.05375189    -0.76170
Co931      Co  0.75778517  0.76760959  0.40912430     1.51530
Co932      Co  0.73224820  0.79681062  0.08903215     1.51690
Co933      Co  0.70168677  0.73659491  0.48122810     1.51570
Co934      Co  0.79092062  0.82454276  0.48343948     1.51470
O935        O  0.74847132  0.77864729  0.50972342    -1.38070
C936        C  0.82650367  0.78416553  0.47471248     1.13480
C937        C  0.67865808  0.71648868  0.10853293     1.13570
C938        C  0.73919009  0.69730601  0.46919953     1.13510
C939        C  0.81269799  0.85015462  0.11120681     1.13480
C940        C  0.64190732  0.79270435  0.99172202    -0.09270
C941        C  0.61247963  0.79263807  0.99169516    -0.10830
C942        C  0.85177013  0.77123233  0.48650984    -0.09270
C943        C  0.88051588  0.77059969  0.48681867    -0.10830
C944        C  0.73558935  0.88430770  0.48942050    -0.09270
C945        C  0.73766989  0.91351458  0.47582891    -0.10830
C946        C  0.75113495  0.67092602  0.48092161    -0.09270
C947        C  0.75455276  0.64450219  0.49469485    -0.10830
C948        C  0.60923854  0.88461666  0.48974094    -0.09270
C949        C  0.63591411  0.91423877  0.47646575    -0.10830
C950        C  0.88168620  0.66961933  0.48046721    -0.09270
C951        C  0.85158555  0.64350792  0.49400594    -0.10830
C952        C  0.83977754  0.52890010  0.15142095    -0.09270
C953        C  0.86411584  0.52944815  0.18603459    -0.10830
C954        C  0.84582812  0.53724259  0.33029491    -0.09270
C955        C  0.86789983  0.53567856  0.29292871    -0.10830
C956        C  0.84301820  0.87670463  0.15412646    -0.09270
C957        C  0.86705474  0.90055717  0.19036715    -0.10830
C958        C  0.86456117  0.90287484  0.29721935    -0.09270
C959        C  0.84074001  0.88057365  0.33319770    -0.10830
C960        C  0.89245489  0.96462532  0.24295177    -0.09270
C961        C  0.89198745  0.99547452  0.24136395    -0.10830
C962        C  0.49482685  0.89994864  0.19122975    -0.09270
C963        C  0.49487482  0.87591029  0.15506154    -0.10830
C964        C  0.99917166  0.90230558  0.29819325    -0.09270
C965        C  0.00055486  0.87987485  0.33408694    -0.10830
C966        C  0.92889389  0.92747919  0.24776295    -0.09270
C967        C  0.95985607  0.92723575  0.24803540    -0.10830
C968        C  0.65007819  0.52914703  0.15246418    -0.09270
C969        C  0.62619285  0.52946499  0.18718392    -0.10830
C970        C  0.65205755  0.53773536  0.33138658    -0.09270
C971        C  0.62840039  0.53584400  0.29396979    -0.10830
C972        C  0.53325739  0.96421149  0.24386183    -0.09270
C973        C  0.56433234  0.99531954  0.24238441    -0.10830
C974        C  0.65249028  0.68650341  0.14960810    -0.09270
C975        C  0.62835430  0.66213562  0.18265334    -0.10830
C976        C  0.64502666  0.68686614  0.32802929    -0.09270
C977        C  0.62366767  0.66317777  0.28908574    -0.10830
C978        C  0.60088727  0.59966331  0.23523134    -0.09270
C979        C  0.60077768  0.56860622  0.23680817    -0.10830
C980        C  0.49527694  0.66150698  0.18212919    -0.09270
C981        C  0.49553866  0.68581068  0.14905802    -0.10830
C982        C  0.00343433  0.68651560  0.32740091    -0.09270
C983        C  0.00079208  0.66270801  0.28842613    -0.10830
C984        C  0.56369142  0.63493436  0.22910073    -0.09270
C985        C  0.53270941  0.63459460  0.22889528    -0.10830
C986        C  0.92867650  0.56852032  0.23603352    -0.09300
C987        C  0.95994312  0.59925492  0.23468357    -0.10830
C988        C  0.99699868  0.63832548  0.73311053     0.01510
C989        C  0.60319752  0.63885351  0.73353513     0.01510
C990        C  0.60375384  0.53217709  0.73992672     0.01510
C991        C  0.49667746  0.92449541  0.74564710     0.01510
C992        C  0.88949125  0.92499640  0.74492046     0.01510
C993        C  0.88918805  0.53219102  0.73900588     0.01510
O994        O  0.70893882  0.53746712  0.87014242    -0.76130
O995        O  0.81244830  0.59778426  0.56217705    -0.76160
O996        O  0.73575769  0.58305658  0.96348088    -0.76170
O997        O  0.82700725  0.52768698  0.93239950    -0.76110
O998        O  0.74668951  0.59821874  0.56273167    -0.76230
O999        O  0.78850713  0.53687465  0.86944139    -0.76150
O1000       O  0.80774924  0.58245453  0.96286884    -0.76130
O1001       O  0.66153062  0.52894657  0.93359025    -0.76170
C1002       C  0.67527753  0.53467755  0.87991881     1.13560
C1003       C  0.82168994  0.60680657  0.00675091     1.13440
C1004       C  0.74671008  0.60744042  0.00739921     1.13580
C1005       C  0.81924503  0.53382036  0.87890619     1.13460
O1006       O  0.74220908  0.96189915  0.91648798    -0.76140
O1007       O  0.70740007  0.52706330  0.62739232    -0.76210
O1008       O  0.66745867  0.97749981  0.00726204    -0.76150
O1009       O  0.82389092  0.54186874  0.55489288    -0.76130
O1010       O  0.78030106  0.52673943  0.62696849    -0.76180
O1011       O  0.67948462  0.96249775  0.91681094    -0.76150
O1012       O  0.76946784  0.97672944  0.00662733    -0.76100
O1013       O  0.67916482  0.54282059  0.55602883    -0.76170
Co1014     Co  0.73266797  0.00534004  0.90759772     1.51530
Co1015     Co  0.76006353  0.55922259  0.59015636     1.51690
Co1016     Co  0.70083148  0.52935499  0.98228391     1.51570
Co1017     Co  0.78846205  0.52865885  0.98163651     1.51470
O1018       O  0.74241360  0.52451026  0.00957490    -1.38070
C1019       C  0.74978479  0.95201328  0.96625075     1.13480
C1020       C  0.67995370  0.53248953  0.61038395     1.13570
C1021       C  0.66215115  0.95273473  0.96675511     1.13510
C1022       C  0.81305297  0.53193254  0.60952558     1.13480
O1023       O  0.49614345  0.69634124  0.93085668    -0.76130
O1024       O  0.54771165  0.84298646  0.96132596    -0.76160
O1025       O  0.00115621  0.82258672  0.87048620    -0.76170
O1026       O  0.56464548  0.78251995  0.55948937    -0.76110
O1027       O  0.49227554  0.86142675  0.93628614    -0.76230
O1028       O  0.55045047  0.77085006  0.96041581    -0.76150
O1029       O  0.56360862  0.84813529  0.55987913    -0.76130
O1030       O  0.00398086  0.74379650  0.86955925    -0.76170
C1031       C  0.00123844  0.71003126  0.87761917     1.13560
C1032       C  0.57234516  0.85642199  0.00412117     1.13440
C1033       C  0.99787249  0.85339996  0.88173289     1.13580
C1034       C  0.57447980  0.78263526  0.50396092     1.13460
O1035       O  0.50997558  0.71470718  0.55343697    -0.76140
O1036       O  0.94364665  0.80415986  0.01393462    -0.76210
O1037       O  0.92921892  0.71300570  0.91893019    -0.76150
O1038       O  0.49312487  0.81633168  0.62804810    -0.76130
O1039       O  0.00837335  0.85987947  0.55731667    -0.76180
O1040       O  0.94505328  0.70243438  0.50799242    -0.76150
O1041       O  0.49389716  0.74345974  0.62638715    -0.76100
O1042       O  0.92804522  0.77569419  0.92393877    -0.76170
Co1043     Co  0.49670971  0.73597410  0.98108320     1.51530
Co1044     Co  0.99462093  0.82350635  0.98396151     1.51690
Co1045     Co  0.97127373  0.76678008  0.90940943     1.51570
Co1046     Co  0.52569421  0.79600720  0.58913098     1.51470
O1047       O  0.49148374  0.77772370  0.00996047    -1.38070
C1048       C  0.49935942  0.71577823  0.60817322     1.13480
C1049       C  0.91871398  0.78296379  0.97545850     1.13570
C1050       C  0.92000293  0.69609489  0.96889011     1.13510
C1051       C  0.49830793  0.84914610  0.61185924     1.13480
O1052       O  0.70197909  0.74409685  0.86955613    -0.76130
O1053       O  0.74623418  0.84889493  0.55971620    -0.76160
O1054       O  0.68237624  0.77109464  0.96048392    -0.76170
O1055       O  0.83086018  0.86251174  0.93548734    -0.76110
O1056       O  0.67982589  0.78304948  0.55956635    -0.76230
O1057       O  0.78312948  0.82331038  0.87012323    -0.76150
O1058       O  0.75696844  0.84374452  0.96104408    -0.76130
O1059       O  0.66275822  0.69664738  0.93121914    -0.76170
C1060       C  0.67105297  0.71030601  0.87791820     1.13560
C1061       C  0.74540957  0.85689187  0.00388140     1.13440
C1062       C  0.67006050  0.78293175  0.50405452     1.13580
C1063       C  0.81713851  0.85424124  0.88106441     1.13460
O1064       O  0.81011098  0.77711434  0.92318906    -0.76140
O1065       O  0.71176036  0.74433094  0.62658624    -0.76210
O1066       O  0.72023711  0.70349508  0.50829029    -0.76150
O1067       O  0.81330439  0.86097169  0.55679876    -0.76130
O1068       O  0.78521523  0.81732378  0.62752652    -0.76180
O1069       O  0.74667454  0.71404413  0.91910892    -0.76150
O1070       O  0.82277920  0.80553699  0.01317840    -0.76100
O1071       O  0.66710027  0.71528151  0.55375015    -0.76170
Co1072     Co  0.75775978  0.76761173  0.90914395     1.51530
Co1073     Co  0.73231115  0.79682578  0.58903126     1.51690
Co1074     Co  0.70164820  0.73657950  0.98123149     1.51570
Co1075     Co  0.79085060  0.82456288  0.98344728     1.51470
O1076       O  0.74842789  0.77864332  0.00973292    -1.38070
C1077       C  0.82652006  0.78426311  0.97473830     1.13480
C1078       C  0.67869566  0.71650675  0.60853084     1.13570
C1079       C  0.73916644  0.69730449  0.96922189     1.13510
C1080       C  0.81276921  0.85014146  0.61120293     1.13480
C1081       C  0.64189587  0.79266433  0.49175481    -0.09270
C1082       C  0.61245593  0.79258116  0.49170448    -0.10830
C1083       C  0.85186935  0.77143445  0.98653088    -0.09270
C1084       C  0.88062956  0.77083010  0.98684473    -0.10830
C1085       C  0.73545376  0.88425863  0.98941084    -0.09270
C1086       C  0.73753828  0.91346545  0.97580653    -0.10830
C1087       C  0.75110081  0.67091630  0.98094150    -0.09270
C1088       C  0.75451177  0.64448610  0.99470087    -0.10830
C1089       C  0.60933372  0.88458278  0.98979666    -0.09270
C1090       C  0.63597832  0.91421119  0.97647180    -0.10830
C1091       C  0.88172301  0.66957167  0.98046193    -0.09270
C1092       C  0.85161683  0.64345168  0.99397367    -0.10830
C1093       C  0.83981950  0.52892544  0.65144894    -0.09270
C1094       C  0.86414943  0.52946294  0.68606894    -0.10830
C1095       C  0.84580772  0.53721995  0.83030216    -0.09270
C1096       C  0.86790060  0.53567230  0.79296096    -0.10830
C1097       C  0.84306989  0.87669997  0.65414306    -0.09270
C1098       C  0.86708591  0.90055947  0.69040059    -0.10830
C1099       C  0.86454865  0.90287055  0.79724832    -0.09270
C1100       C  0.84070516  0.88057524  0.83320904    -0.10830
C1101       C  0.89247231  0.96462856  0.74299329    -0.09270
C1102       C  0.89200913  0.99548087  0.74140775    -0.10830
C1103       C  0.49480018  0.89992141  0.69122976    -0.09270
C1104       C  0.49481707  0.87587244  0.65504660    -0.10830
C1105       C  0.99922004  0.90231868  0.79819586    -0.09270
C1106       C  0.00063795  0.87991243  0.83410299    -0.10830
C1107       C  0.92890313  0.92747317  0.74783746    -0.09270
C1108       C  0.95986399  0.92722600  0.74809176    -0.10830
C1109       C  0.65010551  0.52916184  0.65245902    -0.09270
C1110       C  0.62620523  0.52947272  0.68715159    -0.10830
C1111       C  0.65203384  0.53773651  0.83135734    -0.09270
C1112       C  0.62838328  0.53584710  0.79393112    -0.10830
C1113       C  0.53326018  0.96420392  0.74381144    -0.09270
C1114       C  0.56433038  0.99531613  0.74231924    -0.10830
C1115       C  0.65251858  0.68652258  0.64960137    -0.09270
C1116       C  0.62837130  0.66215221  0.68263157    -0.10830
C1117       C  0.64501341  0.68685051  0.82801909    -0.09270
C1118       C  0.62366388  0.66316887  0.78906156    -0.10830
C1119       C  0.60088390  0.59966524  0.73517549    -0.09270
C1120       C  0.60077038  0.56860595  0.73674636    -0.10830
C1121       C  0.49527033  0.66151424  0.68214238    -0.09270
C1122       C  0.49552321  0.68580643  0.64905252    -0.10830
C1123       C  0.00347032  0.68654832  0.82742460    -0.09270
C1124       C  0.00082163  0.66273993  0.78844411    -0.10830
C1125       C  0.56369941  0.63494896  0.72906549    -0.09270
C1126       C  0.53271982  0.63461430  0.72888426    -0.10830
C1127       C  0.92869533  0.56853354  0.73609990    -0.09300
C1128       C  0.95995773  0.59927302  0.73473787    -0.10830
loop_ 
_geom_bond_atom_site_label_1 
_geom_bond_atom_site_label_2 
_geom_bond_distance 
_geom_bond_site_symmetry_2 
_ccdc_geom_bond_type 
C1          C137   1.477       .  S
C1          C141   1.519       .  S
C1          C698   1.485       .  S
C1          C703   1.512       .  S
C2          C129   1.488       .  S
C2          C131   1.479       .  S
C2          C132   1.519       .  S
C2          C138   1.512       .  S
C3          C123   1.487       .  S
C3          C125   1.486       .  S
C3          C133   1.519       .  S
C3          C409   1.526   1_545  S
C4          C116   1.485       .  S
C4          C126   1.526   1_655  S
C4          C682   1.497       .  S
C4          C685   1.532       .  S
C5          C111   1.483       .  S
C5          C112   1.494       .  S
C5          C114   1.525       .  S
C5          C120   1.532       .  S
C6          C107   1.489       .  S
C6          C109   1.488       .  S
C6          C140   1.519       .  S
C6          C397   1.525   1_545  S
O7           C15   1.312       .  A
O7         Co309   2.118       .  S
O8          C157   1.264       .  A
O8          Co28   1.986       .  S
O9           C17   1.247       .  A
O9          Co29   1.936       .  S
O10          C18   1.262       .  A
O10         Co30   1.889       .  S
O11         C158   1.264       .  A
O11         Co28   1.987       .  S
O12          C18   1.313       .  A
O12        Co309   2.121       .  S
O13          C16   1.247       .  A
O13         Co30   1.936       .  S
O14          C15   1.262       .  A
O14         Co29   1.888       .  S
C15         C124   1.453       .  S
C16         O149   1.264       .  A
C16         C105   1.383       .  S
C17         O152   1.264       .  A
C17         C101   1.384       .  S
C18         C108   1.455       .  S
O19          C32   1.247       .  A
O19         Co27   1.966       .  S
O20          C33   1.278       .  A
O20         Co28   2.021       .  S
O21          C34   1.234       .  A
O21        Co311   1.909       .  S
O22          C35   1.265       .  A
O22        Co171   2.001   1_554  S
O23          C35   1.279       .  A
O23         Co28   2.022       .  S
O24          C34   1.247       .  A
O24         Co27   1.964       .  S
O25          C32   1.234       .  A
O25        Co312   1.909       .  S
O26          C33   1.265       .  A
O26        Co170   2.000   1_554  S
Co27        O289   2.118       .  S
Co27        O294   2.121       .  S
Co27        O313   2.282       .  S
Co28        O172   2.079       .  S
Co29        O303   1.909   1_545  S
Co29        O167   2.000       .  S
Co29         O31   1.868       .  S
Co30        O163   2.001       .  S
Co30        O307   1.909   1_545  S
Co30         O31   1.867       .  S
O31        Co309   2.282       .  S
O31        Co169   2.079       .  S
C32          C99   1.381       .  S
C33         C122   1.456       .  S
C34         C103   1.380       .  S
C35         C106   1.458       .  S
O36         C608   1.263   1_655  A
O36         Co56   1.879       .  S
O37          C45   1.249       .  A
O37        Co621   1.930   1_455  S
O38          C46   1.314       .  A
O38         Co58   2.129       .  S
O39          C47   1.264       .  A
O39         Co59   1.987       .  S
O40         C610   1.263       .  A
O40        Co621   1.897       .  S
O41         C188   1.248       .  A
O41         Co56   1.948   1_455  S
O42         C186   1.264       .  A
O42         Co59   1.984       .  S
O43          C44   1.311       .  A
O43         Co58   2.108       .  S
C44         O600   1.263       .  A
C44         C136   1.443       .  S
C45         O183   1.264       .  A
C45         C102   1.379       .  S
C46         O604   1.263       .  A
C46         C119   1.464       .  S
C47         O182   1.248   1_554  A
C47          C95   1.392   1_554  S
O48          C61   1.265   1_455  A
O48        Co197   1.999   1_454  S
O49          C62   1.231       .  A
O49         Co57   1.904       .  S
O50          C63   1.247       .  A
O50         Co58   1.968       .  S
O51          C64   1.278       .  A
O51         Co59   2.019   1_655  S
O52         C628   1.264       .  A
O52        Co198   1.997   1_554  S
O53         C204   1.235   1_554  A
O53        Co761   1.915   1_554  S
O54          C61   1.278       .  A
O54         Co59   2.021   1_655  S
O55          C62   1.247       .  A
O55         Co58   1.956       .  S
Co56        O189   1.999   1_655  S
Co56        O758   1.915       .  S
Co56         O60   1.867       .  S
Co57        O601   1.930       .  S
Co57        O604   1.897       .  S
Co57        O193   1.997       .  S
Co57        O624   1.869       .  S
Co58        O624   2.275       .  S
Co59        O201   2.069   1_455  S
O60        Co621   1.869       .  S
O60        Co622   2.275       .  S
O60        Co200   2.068   1_655  S
C61         C135   1.455       .  S
C62          C97   1.373       .  S
C63         O194   1.235       .  A
C63         C104   1.385       .  S
C64         O616   1.264   1_655  A
C64         C117   1.454       .  S
O65          C73   1.311       .  A
O65         Co85   2.110       .  S
O66         C215   1.264       .  A
O66         Co86   1.985       .  S
O67         C216   1.249       .  A
O67         Co87   1.948       .  S
O68          C76   1.263       .  A
O68         Co88   1.895       .  S
O69          C75   1.264       .  A
O69         Co86   1.986       .  S
O70          C76   1.314       .  A
O70         Co85   2.127       .  S
O71          C74   1.249       .  A
O71         Co88   1.930       .  S
O72          C73   1.263       .  A
O72         Co87   1.881       .  S
C73         C130   1.445       .  S
C74         O207   1.264       .  A
C74          C98   1.380       .  S
C75         O208   1.249   1_554  A
C75          C94   1.392   1_554  S
C76         C113   1.462       .  S
O77          C90   1.246       .  A
O77         Co85   1.956       .  S
O78          C91   1.279       .  A
O78         Co86   2.023       .  S
O79         C233   1.235   1_554  A
O79        Co228   1.915   1_554  S
O80          C93   1.264       .  A
O80        Co229   1.997   1_554  S
O81          C93   1.277       .  A
O81         Co86   2.018       .  S
O82          C92   1.247       .  A
O82         Co85   1.969       .  S
O83          C90   1.231       .  A
O83         Co88   1.905       .  S
O84          C91   1.265       .  A
O84        Co228   2.000   1_554  S
Co85         O89   2.276       .  S
Co86        O230   2.069       .  S
Co87        O220   1.915       .  S
Co87        O225   2.000       .  S
Co87         O89   1.867       .  S
Co88        O221   1.997       .  S
Co88         O89   1.871       .  S
O89        Co227   2.069       .  S
C90          C96   1.373       .  S
C91         C128   1.457       .  S
C92         O220   1.235       .  A
C92         C100   1.385       .  S
C93         C110   1.452       .  S
C94          C95   1.176       .  T
C96          C97   1.163       .  T
C98          C99   1.171       .  T
C100        C101   1.175       .  T
C102        C103   1.171       .  T
C104        C105   1.175       .  T
C106        C107   1.221       .  T
C108        C109   1.220       .  T
C110        C111   1.217       .  T
C112        C113   1.223       .  T
C114        C115   1.240       .  T
C115        C288   1.525       .  S
C116        C117   1.219       .  T
C118        C568   1.497       .  S
C118        C119   1.225       .  T
C120        C121   1.244       .  T
C121        C568   1.532       .  S
C122        C123   1.220       .  T
C124        C125   1.219       .  T
C126        C127   1.241       .  T
C127        C285   1.526       .  S
C128        C129   1.220       .  T
C130        C131   1.214       .  T
C132        C133   1.237       .  T
C134        C565   1.485       .  S
C134        C135   1.218       .  T
C136        C137   1.213       .  T
C138        C139   1.233       .  T
C139        C565   1.512   1_455  S
C140        C141   1.237       .  T
C142        C839   1.485       .  S
C142        C278   1.477       .  S
C142        C844   1.512       .  S
C142        C282   1.519       .  S
C143        C270   1.488       .  S
C143        C272   1.479       .  S
C143        C273   1.519       .  S
C143        C279   1.512       .  S
C144        C264   1.487       .  S
C144        C266   1.486       .  S
C144        C550   1.526   1_545  S
C144        C274   1.519       .  S
C145        C257   1.485       .  S
C145        C823   1.497       .  S
C145        C826   1.532       .  S
C145        C267   1.526   1_655  S
C146        C252   1.483       .  S
C146        C253   1.495       .  S
C146        C255   1.525       .  S
C146        C261   1.532       .  S
C147        C248   1.489       .  S
C147        C250   1.488       .  S
C147        C538   1.525   1_545  S
C147        C281   1.519       .  S
O148        C156   1.312       .  A
O148       Co450   2.118       .  S
O149       Co169   1.986       .  S
O150        C158   1.247   1_556  A
O150       Co170   1.936       .  S
O151        C159   1.262       .  A
O151       Co171   1.889       .  S
O152       Co169   1.987       .  S
O153        C159   1.313       .  A
O153       Co450   2.121       .  S
O154        C157   1.247   1_556  A
O154       Co171   1.936       .  S
O155        C156   1.263       .  A
O155       Co170   1.888       .  S
C156        C265   1.453       .  S
C157        C246   1.383   1_554  S
C158        C242   1.384   1_554  S
C159        C249   1.455       .  S
O160        C173   1.247       .  A
O160       Co168   1.966       .  S
O161        C174   1.278       .  A
O161       Co169   2.021       .  S
O162        C175   1.234   1_554  A
O162       Co452   1.909   1_554  S
O163        C176   1.265       .  A
O164        C176   1.279       .  A
O164       Co169   2.022       .  S
O165        C175   1.247       .  A
O165       Co168   1.964       .  S
O166        C173   1.234   1_554  A
O166       Co453   1.909   1_554  S
O167        C174   1.265       .  A
Co168       O430   2.118       .  S
Co168       O435   2.121       .  S
Co168       O454   2.282   1_556  S
Co170       O444   1.909   1_546  S
Co170       O172   1.868   1_556  S
Co171       O448   1.909   1_546  S
Co171       O172   1.867   1_556  S
O172       Co450   2.282   1_554  S
C173        C240   1.381       .  S
C174        C263   1.456       .  S
C175        C244   1.380       .  S
C176        C247   1.458       .  S
O177        C749   1.263   1_655  A
O177       Co197   1.879       .  S
O178        C186   1.249   1_556  A
O178       Co762   1.929   1_455  S
O179        C187   1.314       .  A
O179       Co199   2.129       .  S
O180        C188   1.264       .  A
O180       Co200   1.987       .  S
O181        C751   1.263       .  A
O181       Co762   1.897       .  S
O182       Co197   1.948   1_455  S
O183       Co200   1.984       .  S
O184        C185   1.311       .  A
O184       Co199   2.108       .  S
C185        O741   1.263       .  A
C185        C277   1.444       .  S
C186        C243   1.378   1_554  S
C187        O745   1.263       .  A
C187        C260   1.464       .  S
C188        C236   1.392       .  S
O189        C202   1.265   1_455  A
O190        C203   1.231   1_554  A
O190       Co198   1.904   1_554  S
O191        C204   1.247       .  A
O191       Co199   1.968       .  S
O192        C205   1.277       .  A
O192       Co200   2.019   1_655  S
O193        C769   1.264       .  A
O194       Co620   1.915       .  S
O195        C202   1.278       .  A
O195       Co200   2.021   1_655  S
O196        C203   1.247       .  A
O196       Co199   1.956       .  S
Co197       O617   1.915   1_556  S
Co197       O201   1.867   1_556  S
Co198       O742   1.929       .  S
Co198       O745   1.897       .  S
Co198       O765   1.870   1_556  S
Co199       O765   2.275   1_556  S
O201       Co762   1.870   1_554  S
O201       Co763   2.275   1_554  S
C202        C276   1.455       .  S
C203        C238   1.373       .  S
C204        C245   1.385       .  S
C205        O757   1.264   1_655  A
C205        C258   1.454       .  S
O206        C214   1.311       .  A
O206       Co226   2.110       .  S
O207       Co227   1.985       .  S
O208       Co228   1.948       .  S
O209        C217   1.263       .  A
O209       Co229   1.895       .  S
O210        C216   1.264       .  A
O210       Co227   1.987       .  S
O211        C217   1.314       .  A
O211       Co226   2.127       .  S
O212        C215   1.249   1_556  A
O212       Co229   1.930       .  S
O213        C214   1.263       .  A
O213       Co228   1.881       .  S
C214        C271   1.445       .  S
C215        C239   1.380   1_554  S
C216        C235   1.392       .  S
C217        C254   1.462       .  S
O218        C231   1.246       .  A
O218       Co226   1.956       .  S
O219        C232   1.279       .  A
O219       Co227   2.023       .  S
O221        C234   1.264       .  A
O222        C234   1.277       .  A
O222       Co227   2.018       .  S
O223        C233   1.248       .  A
O223       Co226   1.969       .  S
O224        C231   1.231   1_554  A
O224       Co229   1.905   1_554  S
O225        C232   1.265       .  A
Co226       O230   2.275   1_556  S
Co228       O230   1.867   1_556  S
Co229       O230   1.871   1_556  S
C231        C237   1.373       .  S
C232        C269   1.457       .  S
C233        C241   1.385       .  S
C234        C251   1.452       .  S
C235        C236   1.177       .  T
C237        C238   1.163       .  T
C239        C240   1.171       .  T
C241        C242   1.175       .  T
C243        C244   1.171       .  T
C245        C246   1.175       .  T
C247        C248   1.221       .  T
C249        C250   1.220       .  T
C251        C252   1.217       .  T
C253        C254   1.223       .  T
C255        C256   1.240       .  T
C256        C429   1.525       .  S
C257        C258   1.219       .  T
C259        C709   1.497       .  S
C259        C260   1.225       .  T
C261        C262   1.244       .  T
C262        C709   1.532       .  S
C263        C264   1.220       .  T
C265        C266   1.219       .  T
C267        C268   1.241       .  T
C268        C426   1.526       .  S
C269        C270   1.220       .  T
C271        C272   1.214       .  T
C273        C274   1.237       .  T
C275        C706   1.485       .  S
C275        C276   1.218       .  T
C277        C278   1.213       .  T
C279        C280   1.233       .  T
C280        C706   1.512   1_455  S
C281        C282   1.237       .  T
C283        C980   1.485       .  S
C283        C419   1.477       .  S
C283        C985   1.512       .  S
C283        C423   1.519       .  S
C284        C411   1.488       .  S
C284        C413   1.479       .  S
C284        C414   1.519       .  S
C284        C420   1.512       .  S
C285        C405   1.487       .  S
C285        C407   1.486       .  S
C285        C415   1.519       .  S
C286        C398   1.485       .  S
C286        C964   1.497       .  S
C286        C967   1.532       .  S
C286        C408   1.526   1_655  S
C287        C393   1.483       .  S
C287        C394   1.494       .  S
C287        C396   1.525       .  S
C287        C402   1.532       .  S
C288        C389   1.489       .  S
C288        C391   1.488       .  S
C288        C422   1.519       .  S
O289        C297   1.312       .  A
O290        C439   1.264       .  A
O290       Co310   1.986       .  S
O291        C299   1.247       .  A
O291       Co311   1.936       .  S
O292        C300   1.262       .  A
O292       Co312   1.889       .  S
O293        C440   1.264       .  A
O293       Co310   1.987       .  S
O294        C300   1.313       .  A
O295        C298   1.247       .  A
O295       Co312   1.936       .  S
O296        C297   1.262       .  A
O296       Co311   1.888       .  S
C297        C406   1.453       .  S
C298        O431   1.264       .  A
C298        C387   1.383       .  S
C299        O434   1.264       .  A
C299        C383   1.384       .  S
C300        C390   1.455       .  S
O301        C314   1.247       .  A
O301       Co309   1.966   1_565  S
O302        C315   1.278       .  A
O302       Co310   2.021       .  S
O303        C316   1.234       .  A
O304        C317   1.265       .  A
O304       Co453   2.001   1_554  S
O305        C317   1.279       .  A
O305       Co310   2.022       .  S
O306        C316   1.247       .  A
O306       Co309   1.964   1_565  S
O307        C314   1.234       .  A
O308        C315   1.265       .  A
O308       Co452   2.000   1_554  S
Co310       O454   2.079       .  S
Co311       O449   2.000       .  S
Co311       O313   1.868       .  S
Co312       O445   2.001       .  S
Co312       O313   1.867       .  S
O313       Co451   2.079       .  S
C314        C381   1.381       .  S
C315        C404   1.456       .  S
C316        C385   1.380       .  S
C317        C388   1.458       .  S
O318        C890   1.263   1_655  A
O318       Co338   1.879       .  S
O319        C327   1.249       .  A
O319       Co903   1.930   1_455  S
O320        C328   1.314       .  A
O320       Co340   2.129       .  S
O321        C329   1.264       .  A
O321       Co341   1.987       .  S
O322        C892   1.263       .  A
O322       Co903   1.897       .  S
O323        C470   1.248       .  A
O323       Co338   1.948   1_455  S
O324        C468   1.264       .  A
O324       Co341   1.984       .  S
O325        C326   1.311       .  A
O325       Co340   2.108       .  S
C326        O882   1.263       .  A
C326        C418   1.443       .  S
C327        O465   1.264       .  A
C327        C384   1.379       .  S
C328        O886   1.263       .  A
C328        C401   1.464       .  S
C329        O464   1.248   1_554  A
C329        C377   1.392   1_554  S
O330        C343   1.265   1_455  A
O330       Co479   1.999   1_454  S
O331        C344   1.231       .  A
O331       Co339   1.904       .  S
O332        C345   1.247       .  A
O332       Co340   1.968       .  S
O333        C346   1.278       .  A
O333       Co341   2.019   1_655  S
O334        C910   1.264       .  A
O334       Co480   1.997   1_554  S
O335        C486   1.235   1_554  A
O335      Co1043   1.915   1_554  S
O336        C343   1.278       .  A
O336       Co341   2.021   1_655  S
O337        C344   1.247       .  A
O337       Co340   1.956       .  S
Co338       O471   1.999   1_655  S
Co338      O1040   1.915       .  S
Co338       O342   1.867       .  S
Co339       O883   1.930       .  S
Co339       O886   1.897       .  S
Co339       O475   1.997       .  S
Co339       O906   1.869       .  S
Co340       O906   2.275       .  S
Co341       O483   2.069   1_455  S
O342       Co903   1.869       .  S
O342       Co904   2.275       .  S
O342       Co482   2.068   1_655  S
C343        C417   1.455       .  S
C344        C379   1.373       .  S
C345        O476   1.235       .  A
C345        C386   1.385       .  S
C346        O898   1.264   1_655  A
C346        C399   1.454       .  S
O347        C355   1.311       .  A
O347       Co367   2.110       .  S
O348        C497   1.264       .  A
O348       Co368   1.985       .  S
O349        C498   1.249       .  A
O349       Co369   1.948       .  S
O350        C358   1.263       .  A
O350       Co370   1.895       .  S
O351        C357   1.264       .  A
O351       Co368   1.986       .  S
O352        C358   1.314       .  A
O352       Co367   2.127       .  S
O353        C356   1.249       .  A
O353       Co370   1.930       .  S
O354        C355   1.263       .  A
O354       Co369   1.881       .  S
C355        C412   1.445       .  S
C356        O489   1.264       .  A
C356        C380   1.380       .  S
C357        O490   1.249   1_554  A
C357        C376   1.392   1_554  S
C358        C395   1.462       .  S
O359        C372   1.246       .  A
O359       Co367   1.956       .  S
O360        C373   1.279       .  A
O360       Co368   2.023       .  S
O361        C515   1.235   1_554  A
O361       Co510   1.915   1_554  S
O362        C375   1.264       .  A
O362       Co511   1.997   1_554  S
O363        C375   1.277       .  A
O363       Co368   2.018       .  S
O364        C374   1.247       .  A
O364       Co367   1.969       .  S
O365        C372   1.231       .  A
O365       Co370   1.905       .  S
O366        C373   1.265       .  A
O366       Co510   2.000   1_554  S
Co367       O371   2.276       .  S
Co368       O512   2.069       .  S
Co369       O502   1.915       .  S
Co369       O507   2.000       .  S
Co369       O371   1.867       .  S
Co370       O503   1.997       .  S
Co370       O371   1.871       .  S
O371       Co509   2.069       .  S
C372        C378   1.373       .  S
C373        C410   1.457       .  S
C374        O502   1.235       .  A
C374        C382   1.385       .  S
C375        C392   1.452       .  S
C376        C377   1.176       .  T
C378        C379   1.163       .  T
C380        C381   1.171       .  T
C382        C383   1.175       .  T
C384        C385   1.171       .  T
C386        C387   1.175       .  T
C388        C389   1.221       .  T
C390        C391   1.220       .  T
C392        C393   1.217       .  T
C394        C395   1.223       .  T
C396        C397   1.240       .  T
C398        C399   1.219       .  T
C400        C850   1.497       .  S
C400        C401   1.225       .  T
C402        C403   1.244       .  T
C403        C850   1.532       .  S
C404        C405   1.220       .  T
C406        C407   1.219       .  T
C408        C409   1.241       .  T
C410        C411   1.220       .  T
C412        C413   1.214       .  T
C414        C415   1.237       .  T
C416        C847   1.485       .  S
C416        C417   1.218       .  T
C418        C419   1.213       .  T
C420        C421   1.233       .  T
C421        C847   1.512   1_455  S
C422        C423   1.237       .  T
C424       C1121   1.485       .  S
C424        C560   1.477       .  S
C424       C1126   1.512       .  S
C424        C564   1.519       .  S
C425        C552   1.488       .  S
C425        C554   1.479       .  S
C425        C555   1.519       .  S
C425        C561   1.512       .  S
C426        C546   1.487       .  S
C426        C548   1.486       .  S
C426        C556   1.519       .  S
C427        C539   1.485       .  S
C427       C1105   1.497       .  S
C427       C1108   1.532       .  S
C427        C549   1.526   1_655  S
C428        C534   1.483       .  S
C428        C535   1.495       .  S
C428        C537   1.525       .  S
C428        C543   1.532       .  S
C429        C530   1.489       .  S
C429        C532   1.488       .  S
C429        C563   1.519       .  S
O430        C438   1.312       .  A
O431       Co451   1.986       .  S
O432        C440   1.247   1_556  A
O432       Co452   1.936       .  S
O433        C441   1.262       .  A
O433       Co453   1.889       .  S
O434       Co451   1.987       .  S
O435        C441   1.313       .  A
O436        C439   1.247   1_556  A
O436       Co453   1.936       .  S
O437        C438   1.263       .  A
O437       Co452   1.888       .  S
C438        C547   1.453       .  S
C439        C528   1.383   1_554  S
C440        C524   1.384   1_554  S
C441        C531   1.455       .  S
O442        C455   1.247       .  A
O442       Co450   1.966   1_565  S
O443        C456   1.278       .  A
O443       Co451   2.021       .  S
O444        C457   1.234   1_554  A
O445        C458   1.265       .  A
O446        C458   1.279       .  A
O446       Co451   2.022       .  S
O447        C457   1.247       .  A
O447       Co450   1.964   1_565  S
O448        C455   1.234   1_554  A
O449        C456   1.265       .  A
Co452       O454   1.868   1_556  S
Co453       O454   1.867   1_556  S
C455        C522   1.381       .  S
C456        C545   1.456       .  S
C457        C526   1.380       .  S
C458        C529   1.458       .  S
O459       C1031   1.263   1_655  A
O459       Co479   1.879       .  S
O460        C468   1.249   1_556  A
O460      Co1044   1.929   1_455  S
O461        C469   1.314       .  A
O461       Co481   2.129       .  S
O462        C470   1.264       .  A
O462       Co482   1.987       .  S
O463       C1033   1.263       .  A
O463      Co1044   1.897       .  S
O464       Co479   1.948   1_455  S
O465       Co482   1.984       .  S
O466        C467   1.311       .  A
O466       Co481   2.108       .  S
C467       O1023   1.263       .  A
C467        C559   1.444       .  S
C468        C525   1.378   1_554  S
C469       O1027   1.263       .  A
C469        C542   1.464       .  S
C470        C518   1.392       .  S
O471        C484   1.265   1_455  A
O472        C485   1.231   1_554  A
O472       Co480   1.904   1_554  S
O473        C486   1.247       .  A
O473       Co481   1.968       .  S
O474        C487   1.277       .  A
O474       Co482   2.019   1_655  S
O475       C1051   1.264       .  A
O476       Co902   1.915       .  S
O477        C484   1.278       .  A
O477       Co482   2.021   1_655  S
O478        C485   1.247       .  A
O478       Co481   1.956       .  S
Co479       O899   1.915   1_556  S
Co479       O483   1.867   1_556  S
Co480      O1024   1.929       .  S
Co480      O1027   1.897       .  S
Co480      O1047   1.870   1_556  S
Co481      O1047   2.275   1_556  S
O483      Co1044   1.870   1_554  S
O483      Co1045   2.275   1_554  S
C484        C558   1.455       .  S
C485        C520   1.373       .  S
C486        C527   1.385       .  S
C487       O1039   1.264   1_655  A
C487        C540   1.454       .  S
O488        C496   1.311       .  A
O488       Co508   2.110       .  S
O489       Co509   1.985       .  S
O490       Co510   1.948       .  S
O491        C499   1.263       .  A
O491       Co511   1.895       .  S
O492        C498   1.264       .  A
O492       Co509   1.987       .  S
O493        C499   1.314       .  A
O493       Co508   2.127       .  S
O494        C497   1.249   1_556  A
O494       Co511   1.930       .  S
O495        C496   1.263       .  A
O495       Co510   1.881       .  S
C496        C553   1.445       .  S
C497        C521   1.380   1_554  S
C498        C517   1.392       .  S
C499        C536   1.462       .  S
O500        C513   1.246       .  A
O500       Co508   1.956       .  S
O501        C514   1.279       .  A
O501       Co509   2.023       .  S
O503        C516   1.264       .  A
O504        C516   1.277       .  A
O504       Co509   2.018       .  S
O505        C515   1.248       .  A
O505       Co508   1.969       .  S
O506        C513   1.231   1_554  A
O506       Co511   1.905   1_554  S
O507        C514   1.265       .  A
Co508       O512   2.275   1_556  S
Co510       O512   1.867   1_556  S
Co511       O512   1.871   1_556  S
C513        C519   1.373       .  S
C514        C551   1.457       .  S
C515        C523   1.385       .  S
C516        C533   1.452       .  S
C517        C518   1.177       .  T
C519        C520   1.163       .  T
C521        C522   1.171       .  T
C523        C524   1.175       .  T
C525        C526   1.171       .  T
C527        C528   1.175       .  T
C529        C530   1.221       .  T
C531        C532   1.220       .  T
C533        C534   1.217       .  T
C535        C536   1.223       .  T
C537        C538   1.240       .  T
C539        C540   1.219       .  T
C541        C991   1.497       .  S
C541        C542   1.225       .  T
C543        C544   1.244       .  T
C544        C991   1.532       .  S
C545        C546   1.220       .  T
C547        C548   1.219       .  T
C549        C550   1.241       .  T
C551        C552   1.220       .  T
C553        C554   1.214       .  T
C555        C556   1.237       .  T
C557        C988   1.485       .  S
C557        C558   1.218       .  T
C559        C560   1.213       .  T
C561        C562   1.233       .  T
C562        C988   1.512   1_455  S
C563        C564   1.237       .  T
C565        C701   1.477   1_655  S
C565        C705   1.519       .  S
C566        C693   1.488       .  S
C566        C695   1.479       .  S
C566        C696   1.519       .  S
C566        C702   1.512       .  S
C567        C687   1.487       .  S
C567        C689   1.486       .  S
C567        C973   1.526   1_545  S
C567        C697   1.519       .  S
C568        C680   1.485       .  S
C568        C690   1.526       .  S
C569        C675   1.483       .  S
C569        C676   1.494       .  S
C569        C678   1.525       .  S
C569        C684   1.532       .  S
C570        C671   1.489       .  S
C570        C673   1.488       .  S
C570        C961   1.525   1_545  S
C570        C704   1.519       .  S
O571        C579   1.312       .  A
O571       Co873   2.118       .  S
O572        C721   1.264       .  A
O572       Co592   1.986       .  S
O573        C581   1.247       .  A
O573       Co593   1.936       .  S
O574        C582   1.262       .  A
O574       Co594   1.889       .  S
O575        C722   1.264       .  A
O575       Co592   1.987       .  S
O576        C582   1.313       .  A
O576       Co873   2.121       .  S
O577        C580   1.247       .  A
O577       Co594   1.936       .  S
O578        C579   1.262       .  A
O578       Co593   1.888       .  S
C579        C688   1.453       .  S
C580        O713   1.264       .  A
C580        C669   1.383       .  S
C581        O716   1.264       .  A
C581        C665   1.384       .  S
C582        C672   1.455       .  S
O583        C596   1.247       .  A
O583       Co591   1.966       .  S
O584        C597   1.278       .  A
O584       Co592   2.021       .  S
O585        C598   1.234       .  A
O585       Co875   1.909       .  S
O586        C599   1.265       .  A
O586       Co735   2.001   1_554  S
O587        C599   1.279       .  A
O587       Co592   2.022       .  S
O588        C598   1.247       .  A
O588       Co591   1.964       .  S
O589        C596   1.234       .  A
O589       Co876   1.909       .  S
O590        C597   1.265       .  A
O590       Co734   2.000   1_554  S
Co591       O853   2.118       .  S
Co591       O858   2.121       .  S
Co591       O877   2.282       .  S
Co592       O736   2.079       .  S
Co593       O867   1.909   1_545  S
Co593       O731   2.000       .  S
Co593       O595   1.868       .  S
Co594       O727   2.001       .  S
Co594       O871   1.909   1_545  S
Co594       O595   1.867       .  S
O595       Co873   2.282       .  S
O595       Co733   2.079       .  S
C596        C663   1.381       .  S
C597        C686   1.456       .  S
C598        C667   1.380       .  S
C599        C670   1.458       .  S
O600       Co620   1.879       .  S
O601        C609   1.249       .  A
O602        C610   1.314   1_455  A
O602       Co622   2.129   1_455  S
O603        C611   1.264       .  A
O603       Co623   1.987       .  S
O605        C752   1.248       .  A
O605       Co620   1.948       .  S
O606        C750   1.264       .  A
O606       Co623   1.984       .  S
O607        C608   1.311       .  A
O607       Co622   2.108   1_455  S
C608        C700   1.443       .  S
C609        O747   1.264       .  A
C609        C666   1.379       .  S
C610        C683   1.464   1_655  S
C611        O746   1.248   1_554  A
C611        C659   1.392   1_554  S
O612        C625   1.265       .  A
O612       Co761   1.999   1_554  S
O613        C626   1.231       .  A
O613       Co621   1.904       .  S
O614        C627   1.247       .  A
O614       Co622   1.968       .  S
O615        C628   1.278       .  A
O615       Co623   2.019       .  S
O616       Co762   1.997   1_454  S
O617        C768   1.235   1_554  A
O618        C625   1.278       .  A
O618       Co623   2.021       .  S
O619        C626   1.247       .  A
O619       Co622   1.956       .  S
Co620       O753   1.999       .  S
Co620       O624   1.867       .  S
Co621       O757   1.997   1_655  S
Co623       O765   2.069       .  S
O624       Co764   2.068       .  S
C625        C699   1.455       .  S
C626        C661   1.373       .  S
C627        O758   1.235       .  A
C627        C668   1.385       .  S
C628        C681   1.454       .  S
O629        C637   1.311       .  A
O629       Co649   2.110       .  S
O630        C779   1.264       .  A
O630       Co650   1.985       .  S
O631        C780   1.249       .  A
O631       Co651   1.948       .  S
O632        C640   1.263       .  A
O632       Co652   1.895       .  S
O633        C639   1.264       .  A
O633       Co650   1.986       .  S
O634        C640   1.314       .  A
O634       Co649   2.127       .  S
O635        C638   1.249       .  A
O635       Co652   1.930       .  S
O636        C637   1.263       .  A
O636       Co651   1.881       .  S
C637        C694   1.445       .  S
C638        O771   1.264       .  A
C638        C662   1.380       .  S
C639        O772   1.249   1_554  A
C639        C658   1.392   1_554  S
C640        C677   1.462       .  S
O641        C654   1.246       .  A
O641       Co649   1.956       .  S
O642        C655   1.279       .  A
O642       Co650   2.023       .  S
O643        C797   1.235   1_554  A
O643       Co792   1.915   1_554  S
O644        C657   1.264       .  A
O644       Co793   1.997   1_554  S
O645        C657   1.277       .  A
O645       Co650   2.018       .  S
O646        C656   1.247       .  A
O646       Co649   1.969       .  S
O647        C654   1.231       .  A
O647       Co652   1.905       .  S
O648        C655   1.265       .  A
O648       Co792   2.000   1_554  S
Co649       O653   2.276       .  S
Co650       O794   2.069       .  S
Co651       O784   1.915       .  S
Co651       O789   2.000       .  S
Co651       O653   1.867       .  S
Co652       O785   1.997       .  S
Co652       O653   1.871       .  S
O653       Co791   2.069       .  S
C654        C660   1.373       .  S
C655        C692   1.457       .  S
C656        O784   1.235       .  A
C656        C664   1.385       .  S
C657        C674   1.452       .  S
C658        C659   1.176       .  T
C660        C661   1.163       .  T
C662        C663   1.171       .  T
C664        C665   1.175       .  T
C666        C667   1.171       .  T
C668        C669   1.175       .  T
C670        C671   1.221       .  T
C672        C673   1.220       .  T
C674        C675   1.217       .  T
C676        C677   1.223       .  T
C678        C679   1.240       .  T
C679        C852   1.525       .  S
C680        C681   1.219       .  T
C682        C683   1.225   1_655  T
C684        C685   1.244       .  T
C686        C687   1.220       .  T
C688        C689   1.219       .  T
C690        C691   1.241       .  T
C691        C849   1.526       .  S
C692        C693   1.220       .  T
C694        C695   1.214       .  T
C696        C697   1.237       .  T
C698        C699   1.218       .  T
C700        C701   1.213       .  T
C702        C703   1.233       .  T
C704        C705   1.237       .  T
C706        C842   1.477   1_655  S
C706        C846   1.519       .  S
C707        C834   1.488       .  S
C707        C836   1.479       .  S
C707        C837   1.519       .  S
C707        C843   1.512       .  S
C708        C828   1.487       .  S
C708        C830   1.486       .  S
C708       C1114   1.526   1_545  S
C708        C838   1.519       .  S
C709        C821   1.485       .  S
C709        C831   1.526       .  S
C710        C816   1.483       .  S
C710        C817   1.495       .  S
C710        C819   1.525       .  S
C710        C825   1.532       .  S
C711        C812   1.489       .  S
C711        C814   1.488       .  S
C711       C1102   1.525   1_545  S
C711        C845   1.519       .  S
O712        C720   1.312       .  A
O712      Co1014   2.118       .  S
O713       Co733   1.986       .  S
O714        C722   1.247   1_556  A
O714       Co734   1.936       .  S
O715        C723   1.262       .  A
O715       Co735   1.889       .  S
O716       Co733   1.987       .  S
O717        C723   1.313       .  A
O717      Co1014   2.121       .  S
O718        C721   1.247   1_556  A
O718       Co735   1.936       .  S
O719        C720   1.263       .  A
O719       Co734   1.888       .  S
C720        C829   1.453       .  S
C721        C810   1.383   1_554  S
C722        C806   1.384   1_554  S
C723        C813   1.455       .  S
O724        C737   1.247       .  A
O724       Co732   1.966       .  S
O725        C738   1.278       .  A
O725       Co733   2.021       .  S
O726        C739   1.234   1_554  A
O726      Co1016   1.909   1_554  S
O727        C740   1.265       .  A
O728        C740   1.279       .  A
O728       Co733   2.022       .  S
O729        C739   1.247       .  A
O729       Co732   1.964       .  S
O730        C737   1.234   1_554  A
O730      Co1017   1.909   1_554  S
O731        C738   1.265       .  A
Co732       O994   2.118       .  S
Co732       O999   2.121       .  S
Co732      O1018   2.282   1_556  S
Co734      O1008   1.909   1_546  S
Co734       O736   1.868   1_556  S
Co735      O1012   1.909   1_546  S
Co735       O736   1.867   1_556  S
O736      Co1014   2.282   1_554  S
C737        C804   1.381       .  S
C738        C827   1.456       .  S
C739        C808   1.380       .  S
C740        C811   1.458       .  S
O741       Co761   1.879       .  S
O742        C750   1.249   1_556  A
O743        C751   1.314   1_455  A
O743       Co763   2.129   1_455  S
O744        C752   1.264       .  A
O744       Co764   1.987       .  S
O746       Co761   1.948       .  S
O747       Co764   1.984       .  S
O748        C749   1.311       .  A
O748       Co763   2.108   1_455  S
C749        C841   1.444       .  S
C750        C807   1.378   1_554  S
C751        C824   1.464   1_655  S
C752        C800   1.392       .  S
O753        C766   1.265       .  A
O754        C767   1.231   1_554  A
O754       Co762   1.904   1_554  S
O755        C768   1.247       .  A
O755       Co763   1.968       .  S
O756        C769   1.277       .  A
O756       Co764   2.019       .  S
O759        C766   1.278       .  A
O759       Co764   2.021       .  S
O760        C767   1.247       .  A
O760       Co763   1.956       .  S
Co761       O765   1.867   1_556  S
C766        C840   1.455       .  S
C767        C802   1.373       .  S
C768        C809   1.385       .  S
C769        C822   1.454       .  S
O770        C778   1.311       .  A
O770       Co790   2.110       .  S
O771       Co791   1.985       .  S
O772       Co792   1.948       .  S
O773        C781   1.263       .  A
O773       Co793   1.895       .  S
O774        C780   1.264       .  A
O774       Co791   1.987       .  S
O775        C781   1.314       .  A
O775       Co790   2.127       .  S
O776        C779   1.249   1_556  A
O776       Co793   1.930       .  S
O777        C778   1.263       .  A
O777       Co792   1.881       .  S
C778        C835   1.445       .  S
C779        C803   1.380   1_554  S
C780        C799   1.392       .  S
C781        C818   1.462       .  S
O782        C795   1.246       .  A
O782       Co790   1.956       .  S
O783        C796   1.279       .  A
O783       Co791   2.023       .  S
O785        C798   1.264       .  A
O786        C798   1.277       .  A
O786       Co791   2.018       .  S
O787        C797   1.248       .  A
O787       Co790   1.969       .  S
O788        C795   1.231   1_554  A
O788       Co793   1.905   1_554  S
O789        C796   1.265       .  A
Co790       O794   2.275   1_556  S
Co792       O794   1.867   1_556  S
Co793       O794   1.871   1_556  S
C795        C801   1.373       .  S
C796        C833   1.457       .  S
C797        C805   1.385       .  S
C798        C815   1.452       .  S
C799        C800   1.177       .  T
C801        C802   1.163       .  T
C803        C804   1.171       .  T
C805        C806   1.175       .  T
C807        C808   1.171       .  T
C809        C810   1.175       .  T
C811        C812   1.221       .  T
C813        C814   1.220       .  T
C815        C816   1.217       .  T
C817        C818   1.223       .  T
C819        C820   1.240       .  T
C820        C993   1.525       .  S
C821        C822   1.219       .  T
C823        C824   1.225   1_655  T
C825        C826   1.244       .  T
C827        C828   1.220       .  T
C829        C830   1.219       .  T
C831        C832   1.241       .  T
C832        C990   1.526       .  S
C833        C834   1.220       .  T
C835        C836   1.214       .  T
C837        C838   1.237       .  T
C839        C840   1.218       .  T
C841        C842   1.213       .  T
C843        C844   1.233       .  T
C845        C846   1.237       .  T
C847        C983   1.477   1_655  S
C847        C987   1.519       .  S
C848        C975   1.488       .  S
C848        C977   1.479       .  S
C848        C978   1.519       .  S
C848        C984   1.512       .  S
C849        C969   1.487       .  S
C849        C971   1.486       .  S
C849        C979   1.519       .  S
C850        C962   1.485       .  S
C850        C972   1.526       .  S
C851        C957   1.483       .  S
C851        C958   1.494       .  S
C851        C960   1.525       .  S
C851        C966   1.532       .  S
C852        C953   1.489       .  S
C852        C955   1.488       .  S
C852        C986   1.519       .  S
O853        C861   1.312       .  A
O854       C1003   1.264       .  A
O854       Co874   1.986       .  S
O855        C863   1.247       .  A
O855       Co875   1.936       .  S
O856        C864   1.262       .  A
O856       Co876   1.889       .  S
O857       C1004   1.264       .  A
O857       Co874   1.987       .  S
O858        C864   1.313       .  A
O859        C862   1.247       .  A
O859       Co876   1.936       .  S
O860        C861   1.262       .  A
O860       Co875   1.888       .  S
C861        C970   1.453       .  S
C862        O995   1.264       .  A
C862        C951   1.383       .  S
C863        O998   1.264       .  A
C863        C947   1.384       .  S
C864        C954   1.455       .  S
O865        C878   1.247       .  A
O865       Co873   1.966   1_565  S
O866        C879   1.278       .  A
O866       Co874   2.021       .  S
O867        C880   1.234       .  A
O868        C881   1.265       .  A
O868      Co1017   2.001   1_554  S
O869        C881   1.279       .  A
O869       Co874   2.022       .  S
O870        C880   1.247       .  A
O870       Co873   1.964   1_565  S
O871        C878   1.234       .  A
O872        C879   1.265       .  A
O872      Co1016   2.000   1_554  S
Co874      O1018   2.079       .  S
Co875      O1013   2.000       .  S
Co875       O877   1.868       .  S
Co876      O1009   2.001       .  S
Co876       O877   1.867       .  S
O877      Co1015   2.079       .  S
C878        C945   1.381       .  S
C879        C968   1.456       .  S
C880        C949   1.380       .  S
C881        C952   1.458       .  S
O882       Co902   1.879       .  S
O883        C891   1.249       .  A
O884        C892   1.314   1_455  A
O884       Co904   2.129   1_455  S
O885        C893   1.264       .  A
O885       Co905   1.987       .  S
O887       C1034   1.248       .  A
O887       Co902   1.948       .  S
O888       C1032   1.264       .  A
O888       Co905   1.984       .  S
O889        C890   1.311       .  A
O889       Co904   2.108   1_455  S
C890        C982   1.443       .  S
C891       O1029   1.264       .  A
C891        C948   1.379       .  S
C892        C965   1.464   1_655  S
C893       O1028   1.248   1_554  A
C893        C941   1.392   1_554  S
O894        C907   1.265       .  A
O894      Co1043   1.999   1_554  S
O895        C908   1.231       .  A
O895       Co903   1.904       .  S
O896        C909   1.247       .  A
O896       Co904   1.968       .  S
O897        C910   1.278       .  A
O897       Co905   2.019       .  S
O898      Co1044   1.997   1_454  S
O899       C1050   1.235   1_554  A
O900        C907   1.278       .  A
O900       Co905   2.021       .  S
O901        C908   1.247       .  A
O901       Co904   1.956       .  S
Co902      O1035   1.999       .  S
Co902       O906   1.867       .  S
Co903      O1039   1.997   1_655  S
Co905      O1047   2.069       .  S
O906      Co1046   2.068       .  S
C907        C981   1.455       .  S
C908        C943   1.373       .  S
C909       O1040   1.235       .  A
C909        C950   1.385       .  S
C910        C963   1.454       .  S
O911        C919   1.311       .  A
O911       Co931   2.110       .  S
O912       C1061   1.264       .  A
O912       Co932   1.985       .  S
O913       C1062   1.249       .  A
O913       Co933   1.948       .  S
O914        C922   1.263       .  A
O914       Co934   1.895       .  S
O915        C921   1.264       .  A
O915       Co932   1.986       .  S
O916        C922   1.314       .  A
O916       Co931   2.127       .  S
O917        C920   1.249       .  A
O917       Co934   1.930       .  S
O918        C919   1.263       .  A
O918       Co933   1.881       .  S
C919        C976   1.445       .  S
C920       O1053   1.264       .  A
C920        C944   1.380       .  S
C921       O1054   1.249   1_554  A
C921        C940   1.392   1_554  S
C922        C959   1.462       .  S
O923        C936   1.246       .  A
O923       Co931   1.956       .  S
O924        C937   1.279       .  A
O924       Co932   2.023       .  S
O925       C1079   1.235   1_554  A
O925      Co1074   1.915   1_554  S
O926        C939   1.264       .  A
O926      Co1075   1.997   1_554  S
O927        C939   1.277       .  A
O927       Co932   2.018       .  S
O928        C938   1.247       .  A
O928       Co931   1.969       .  S
O929        C936   1.231       .  A
O929       Co934   1.905       .  S
O930        C937   1.265       .  A
O930      Co1074   2.000   1_554  S
Co931       O935   2.276       .  S
Co932      O1076   2.069       .  S
Co933      O1066   1.915       .  S
Co933      O1071   2.000       .  S
Co933       O935   1.867       .  S
Co934      O1067   1.997       .  S
Co934       O935   1.871       .  S
O935      Co1073   2.069       .  S
C936        C942   1.373       .  S
C937        C974   1.457       .  S
C938       O1066   1.235       .  A
C938        C946   1.385       .  S
C939        C956   1.452       .  S
C940        C941   1.176       .  T
C942        C943   1.163       .  T
C944        C945   1.171       .  T
C946        C947   1.175       .  T
C948        C949   1.171       .  T
C950        C951   1.175       .  T
C952        C953   1.221       .  T
C954        C955   1.220       .  T
C956        C957   1.217       .  T
C958        C959   1.223       .  T
C960        C961   1.240       .  T
C962        C963   1.219       .  T
C964        C965   1.225   1_655  T
C966        C967   1.244       .  T
C968        C969   1.220       .  T
C970        C971   1.219       .  T
C972        C973   1.241       .  T
C974        C975   1.220       .  T
C976        C977   1.214       .  T
C978        C979   1.237       .  T
C980        C981   1.218       .  T
C982        C983   1.213       .  T
C984        C985   1.233       .  T
C986        C987   1.237       .  T
C988       C1124   1.477   1_655  S
C988       C1128   1.519       .  S
C989       C1116   1.488       .  S
C989       C1118   1.479       .  S
C989       C1119   1.519       .  S
C989       C1125   1.512       .  S
C990       C1110   1.487       .  S
C990       C1112   1.486       .  S
C990       C1120   1.519       .  S
C991       C1103   1.485       .  S
C991       C1113   1.526       .  S
C992       C1098   1.483       .  S
C992       C1099   1.495       .  S
C992       C1101   1.525       .  S
C992       C1107   1.532       .  S
C993       C1094   1.489       .  S
C993       C1096   1.488       .  S
C993       C1127   1.519       .  S
O994       C1002   1.312       .  A
O995      Co1015   1.986       .  S
O996       C1004   1.247   1_556  A
O996      Co1016   1.936       .  S
O997       C1005   1.262       .  A
O997      Co1017   1.889       .  S
O998      Co1015   1.987       .  S
O999       C1005   1.313       .  A
O1000      C1003   1.247   1_556  A
O1000     Co1017   1.936       .  S
O1001      C1002   1.263       .  A
O1001     Co1016   1.888       .  S
C1002      C1111   1.453       .  S
C1003      C1092   1.383   1_554  S
C1004      C1088   1.384   1_554  S
C1005      C1095   1.455       .  S
O1006      C1019   1.247       .  A
O1006     Co1014   1.966   1_565  S
O1007      C1020   1.278       .  A
O1007     Co1015   2.021       .  S
O1008      C1021   1.234   1_554  A
O1009      C1022   1.265       .  A
O1010      C1022   1.279       .  A
O1010     Co1015   2.022       .  S
O1011      C1021   1.247       .  A
O1011     Co1014   1.964   1_565  S
O1012      C1019   1.234   1_554  A
O1013      C1020   1.265       .  A
Co1016     O1018   1.868   1_556  S
Co1017     O1018   1.867   1_556  S
C1019      C1086   1.381       .  S
C1020      C1109   1.456       .  S
C1021      C1090   1.380       .  S
C1022      C1093   1.458       .  S
O1023     Co1043   1.879       .  S
O1024      C1032   1.249   1_556  A
O1025      C1033   1.314   1_455  A
O1025     Co1045   2.129   1_455  S
O1026      C1034   1.264       .  A
O1026     Co1046   1.987       .  S
O1028     Co1043   1.948       .  S
O1029     Co1046   1.984       .  S
O1030      C1031   1.311       .  A
O1030     Co1045   2.108   1_455  S
C1031      C1123   1.444       .  S
C1032      C1089   1.378   1_554  S
C1033      C1106   1.464   1_655  S
C1034      C1082   1.392       .  S
O1035      C1048   1.265       .  A
O1036      C1049   1.231   1_554  A
O1036     Co1044   1.904   1_554  S
O1037      C1050   1.247       .  A
O1037     Co1045   1.968       .  S
O1038      C1051   1.277       .  A
O1038     Co1046   2.019       .  S
O1041      C1048   1.278       .  A
O1041     Co1046   2.021       .  S
O1042      C1049   1.247       .  A
O1042     Co1045   1.956       .  S
Co1043     O1047   1.867   1_556  S
C1048      C1122   1.455       .  S
C1049      C1084   1.373       .  S
C1050      C1091   1.385       .  S
C1051      C1104   1.454       .  S
O1052      C1060   1.311       .  A
O1052     Co1072   2.110       .  S
O1053     Co1073   1.985       .  S
O1054     Co1074   1.948       .  S
O1055      C1063   1.263       .  A
O1055     Co1075   1.895       .  S
O1056      C1062   1.264       .  A
O1056     Co1073   1.987       .  S
O1057      C1063   1.314       .  A
O1057     Co1072   2.127       .  S
O1058      C1061   1.249   1_556  A
O1058     Co1075   1.930       .  S
O1059      C1060   1.263       .  A
O1059     Co1074   1.881       .  S
C1060      C1117   1.445       .  S
C1061      C1085   1.380   1_554  S
C1062      C1081   1.392       .  S
C1063      C1100   1.462       .  S
O1064      C1077   1.246       .  A
O1064     Co1072   1.956       .  S
O1065      C1078   1.279       .  A
O1065     Co1073   2.023       .  S
O1067      C1080   1.264       .  A
O1068      C1080   1.277       .  A
O1068     Co1073   2.018       .  S
O1069      C1079   1.248       .  A
O1069     Co1072   1.969       .  S
O1070      C1077   1.231   1_554  A
O1070     Co1075   1.905   1_554  S
O1071      C1078   1.265       .  A
Co1072     O1076   2.275   1_556  S
Co1074     O1076   1.867   1_556  S
Co1075     O1076   1.871   1_556  S
C1077      C1083   1.373       .  S
C1078      C1115   1.457       .  S
C1079      C1087   1.385       .  S
C1080      C1097   1.452       .  S
C1081      C1082   1.177       .  T
C1083      C1084   1.163       .  T
C1085      C1086   1.171       .  T
C1087      C1088   1.175       .  T
C1089      C1090   1.171       .  T
C1091      C1092   1.175       .  T
C1093      C1094   1.221       .  T
C1095      C1096   1.220       .  T
C1097      C1098   1.217       .  T
C1099      C1100   1.223       .  T
C1101      C1102   1.240       .  T
C1103      C1104   1.219       .  T
C1105      C1106   1.225   1_655  T
C1107      C1108   1.244       .  T
C1109      C1110   1.220       .  T
C1111      C1112   1.219       .  T
C1113      C1114   1.241       .  T
C1115      C1116   1.220       .  T
C1117      C1118   1.214       .  T
C1119      C1120   1.237       .  T
C1121      C1122   1.218       .  T
C1123      C1124   1.213       .  T
C1125      C1126   1.233       .  T
C1127      C1128   1.237       .  T
