geometry optimzed in LAMMPS
_audit_creation_date              2020-12-01 
_audit_creation_method            'lammps2cif' 
_symmetry_space_group_name_H-M    'P1' 
_symmetry_Int_Tables_number       1 
_symmetry_cell_setting            triclinic 
loop_ 
_symmetry_equiv_pos_as_xyz 
  x,y,z 
_cell_length_a                    39.93226516 
_cell_length_b                    39.99097906181512 
_cell_length_c                    40.14728987126329 
_cell_angle_alpha                 89.3711839507085 
_cell_angle_beta                  89.49245660620821 
_cell_angle_gamma                 89.29692699815439 
loop_ 
_atom_site_label 
_atom_site_type_symbol 
_atom_site_fract_x 
_atom_site_fract_y 
_atom_site_fract_z 
_atom_site_charge 
C1          C  0.77323027  0.49790421  0.04135235     0.86200
C2          C  0.75617740  0.53267305  0.03745592    -0.54100
C3          C  0.74375895  0.53834889  0.00592301     0.09100
C4          C  0.75012115  0.50874416  0.98185643     0.20000
C5          C  0.74605016  0.47320047  0.03083728    -0.54800
C6          C  0.73436022  0.47844831  0.99952883     0.09200
C7          C  0.79980478  0.49641485  0.01354184    -0.54300
C8          C  0.78784005  0.50154496  0.98232047     0.09800
H9          H  0.75356191  0.55046930  0.05754712     0.14300
H10         H  0.74086513  0.51270177  0.95628371     0.00000
H11         H  0.73762066  0.45263541  0.04653195     0.14600
H12         H  0.82533763  0.48777253  0.01789776     0.14400
C13         C  0.53910037  0.74419280  0.00014168     0.86200
C14         C  0.53054519  0.77187841  0.97402369    -0.54100
C15         C  0.49862903  0.78400455  0.97602825     0.09100
C16         C  0.47848478  0.76837849  0.00480942     0.20000
C17         C  0.53165596  0.76127994  0.03393085    -0.54800
C18         C  0.49951633  0.77426747  0.03613304     0.09200
C19         C  0.51141620  0.71812344  0.99631549    -0.54300
C20         C  0.47978796  0.73085347  0.99897923     0.09800
H21         H  0.54809622  0.78092457  0.95532733     0.14300
H22         H  0.45246114  0.77776112  0.00623957     0.00000
H23         H  0.55005468  0.76375179  0.05344804     0.14600
H24         H  0.51642703  0.69247100  0.98892339     0.14400
C25         C  0.00106192  0.54982122  0.73906405     0.86200
C26         C  0.97547530  0.53886181  0.76610006    -0.54100
C27         C  0.97905053  0.50656423  0.77648920     0.09100
C28         C  0.00861666  0.48836320  0.75972094     0.20000
C29         C  0.03541546  0.54296292  0.75555660    -0.54800
C30         C  0.03915610  0.51036474  0.76672898     0.09200
C31         C  0.99830638  0.52355361  0.71161256    -0.54300
C32         C  0.00240994  0.49146130  0.72243942     0.09800
H33         H  0.95610010  0.55526757  0.77606801     0.14300
H34         H  0.01105068  0.46196408  0.76755962     0.00000
H35         H  0.05405942  0.56205935  0.75920376     0.14600
H36         H  0.99040881  0.52967005  0.68640936     0.14400
C37         C  0.53973433  0.00942592  0.73712340     0.86200
C38         C  0.53169853  0.04322310  0.75402885    -0.54100
C39         C  0.49915714  0.04549806  0.76572073     0.09100
C40         C  0.47824529  0.01417031  0.75864233     0.20000
C41         C  0.53013727  0.98303657  0.76407099    -0.54800
C42         C  0.49777919  0.98510079  0.77487183     0.09200
C43         C  0.51317705  0.00594088  0.70996150    -0.54300
C44         C  0.48109079  0.00860030  0.72123469     0.09800
H45         H  0.55006772  0.06262231  0.75747995     0.14300
H46         H  0.45183845  0.01547758  0.76673720     0.00000
H47         H  0.54741832  0.96421384  0.77365661     0.14600
H48         H  0.51923892  0.99879694  0.68455000     0.14400
C49         C  0.74142433  0.01702028  0.53142255     0.86200
C50         C  0.76936644  0.99159532  0.52182715    -0.54100
C51         C  0.78062655  0.99440428  0.48989745     0.09100
C52         C  0.76381933  0.02321052  0.47061141     0.20000
C53         C  0.75776233  0.05135148  0.52423803    -0.54800
C54         C  0.76999840  0.05434520  0.49202517     0.09200
C55         C  0.71464169  0.01329965  0.50452016    -0.54300
C56         C  0.72633788  0.01663232  0.47277397     0.09800
H57         H  0.77941847  0.97292168  0.53893271     0.14300
H58         H  0.77235658  0.02497993  0.44448841     0.00000
H59         H  0.76089766  0.07035763  0.54299462     0.14600
H60         H  0.68931153  0.00515312  0.51007184     0.14400
C61         C  0.00320255  0.75565299  0.53946242     0.86200
C62         C  0.03767739  0.77187583  0.53255410    -0.54100
C63         C  0.04114057  0.78342589  0.50016282     0.09100
C64         C  0.01028090  0.77707812  0.47844676     0.20000
C65         C  0.97775025  0.78331054  0.52903123    -0.54800
C66         C  0.98103891  0.79401364  0.49692653     0.09200
C67         C  0.99989834  0.72849392  0.51295642    -0.54300
C68         C  0.00373573  0.73974500  0.48113089     0.09800
H69         H  0.05665753  0.77494486  0.55141134     0.14300
H70         H  0.01259496  0.78533457  0.45225873     0.00000
H71         H  0.95853104  0.79330305  0.54553609     0.14600
H72         H  0.99174702  0.70323873  0.51875029     0.14400
C73         C  0.23848452  0.51323988  0.03646512     0.86200
C74         C  0.26563952  0.48717821  0.02611605    -0.54100
C75         C  0.27647482  0.49020664  0.99400047     0.09100
C76         C  0.26012772  0.51983149  0.97543672     0.20000
C77         C  0.25541334  0.54729730  0.02944396    -0.54800
C78         C  0.26700080  0.55055450  0.99706699     0.09200
C79         C  0.21121751  0.51051666  0.00989014    -0.54300
C80         C  0.22256260  0.51415118  0.97805407     0.09800
H81         H  0.27516892  0.46772404  0.04265481     0.14300
H82         H  0.26845561  0.52204835  0.94926410     0.00000
H83         H  0.25858681  0.56632440  0.04817501     0.14600
H84         H  0.18573793  0.50298327  0.01565780     0.14400
O85         O  0.05101910  0.38645334  0.04825414    -0.73300
O86         O  0.98150893  0.37693420  0.97883185    -0.74200
O87         O  0.98061461  0.38052697  0.04827780    -0.65300
O88         O  0.05100466  0.38304000  0.97763065    -0.71300
O89         O  0.05683437  0.32771958  0.98003036    -0.70800
O90         O  0.98521638  0.32517539  0.05219135    -0.62100
O91         O  0.98610288  0.32148164  0.98136168    -0.74600
O92         O  0.05688759  0.33120842  0.05192244    -0.73400
Cu93       Cu  0.01600471  0.38354779  0.01325368     1.04600
Cu94       Cu  0.02161835  0.32431393  0.01662618     1.04300
C95         C  0.06470739  0.36053231  0.06131040     0.92900
C96         C  0.97290698  0.34806862  0.96908064     0.92100
C97         C  0.97115574  0.35271303  0.06074866     0.84200
C98         C  0.06400631  0.35597076  0.96671864     0.90500
N99         N  0.91693698  0.48031599  0.83924747    -0.27600
N100        N  0.93436810  0.45233986  0.83483927    -0.35500
C101        C  0.95852803  0.45750513  0.81207253     0.00700
C102        C  0.95655330  0.49032027  0.80121977     0.06800
C103        C  0.92974341  0.50410779  0.81891015    -0.06300
H104        H  0.97653866  0.43856020  0.80468249     0.07400
H105        H  0.92055878  0.52963944  0.81758812     0.08600
Cu106      Cu  0.92869723  0.40834355  0.86120020     0.44200
Cu107      Cu  0.87773138  0.48488396  0.87412410     0.42000
Cu108      Cu  0.86468557  0.40633167  0.91936049     0.43900
N109        N  0.92784205  0.37256397  0.89829703    -0.35000
N110        N  0.90367781  0.37209580  0.92082541    -0.29200
C111        C  0.91491862  0.35634113  0.94831478    -0.05300
C112        C  0.94788258  0.34649568  0.94297757     0.06900
C113        C  0.95497782  0.35694624  0.91074181     0.00700
H114        H  0.90262921  0.35813440  0.97237898     0.08300
H115        H  0.97982736  0.35944736  0.90006909     0.07400
N116        N  0.83677284  0.44936271  0.92690070    -0.36400
N117        N  0.84185758  0.47863423  0.91211924    -0.28600
C118        C  0.82320006  0.50208487  0.92802833    -0.03900
C119        C  0.80578100  0.48651179  0.95379286     0.04800
C120        C  0.81505851  0.45328177  0.95220988     0.02800
H121        H  0.82410889  0.52865374  0.92278960     0.07900
H122        H  0.80861378  0.43379686  0.96997065     0.06800
C123        C  0.99592692  0.55785184  0.27066373     0.86200
C124        C  0.03079960  0.55323912  0.25398878    -0.54100
C125        C  0.03602701  0.52135410  0.24196102     0.09100
C126        C  0.00598725  0.49777685  0.24832683     0.20000
C127        C  0.97123539  0.54750537  0.24345824    -0.54800
C128        C  0.97599382  0.51589454  0.23231873     0.09200
C129        C  0.99391955  0.53010887  0.29733155    -0.54300
C130        C  0.99864997  0.49861950  0.28576243     0.09800
H131        H  0.04895067  0.57307907  0.25133464     0.14300
H132        H  0.00956708  0.47198909  0.23932101     0.00000
H133        H  0.95081181  0.56342676  0.23480395     0.14600
H134        H  0.98516858  0.53476084  0.32260909     0.14400
N135        N  0.91143595  0.48900193  0.17457459    -0.27600
N136        N  0.92580258  0.46019864  0.18308058    -0.35500
C137        C  0.95082163  0.46564229  0.20419904     0.00700
C138        C  0.95256737  0.49947452  0.20966566     0.06800
C139        C  0.92705136  0.51367201  0.19069207    -0.06300
H140        H  0.96654283  0.44604114  0.21459373     0.07400
H141        H  0.92048788  0.53992197  0.18848713     0.08600
Cu142      Cu  0.91610570  0.41415445  0.16386812     0.44200
Cu143      Cu  0.87180843  0.49320223  0.14096692     0.42000
Cu144      Cu  0.85661137  0.41159387  0.10446946     0.43900
N145        N  0.91921897  0.37862049  0.12774569    -0.35000
N146        N  0.89720883  0.37855834  0.10354424    -0.29200
C147        C  0.91118968  0.36340806  0.07699717    -0.05300
C148        C  0.94358269  0.35331412  0.08499142     0.06900
C149        C  0.94762698  0.36349328  0.11747519     0.00700
H150        H  0.90096848  0.36496590  0.05214365     0.08300
H151        H  0.97132678  0.36576368  0.13007796     0.07400
N152        N  0.82469727  0.45286753  0.10029180    -0.36400
N153        N  0.83147279  0.48355499  0.10979027    -0.28600
C154        C  0.81061219  0.50514212  0.09375999    -0.03900
C155        C  0.78889299  0.48707610  0.07401610     0.04800
C156        C  0.79902136  0.45406150  0.07920453     0.02800
H157        H  0.81331612  0.53202642  0.09372402     0.07900
H158        H  0.79191823  0.43289224  0.06439360     0.06800
N159        N  0.17180955  0.49338910  0.90623556    -0.27600
N160        N  0.18199519  0.46359469  0.91710728    -0.35500
C161        C  0.20163727  0.46715150  0.94358975     0.00700
C162        C  0.20412855  0.50058928  0.94999722     0.06800
C163        C  0.18526114  0.51686928  0.92583873    -0.06300
H164        H  0.21201143  0.44666423  0.95817957     0.07400
H165        H  0.18073717  0.54350827  0.92339167     0.08600
Cu166      Cu  0.16395566  0.41805631  0.90372662     0.44200
Cu167      Cu  0.13778436  0.49981727  0.86716848     0.42000
Cu168      Cu  0.09819925  0.41913295  0.85193176     0.43900
N169        N  0.12716078  0.38338530  0.91007191    -0.35000
N170        N  0.10077711  0.38442571  0.89067148    -0.29200
C171        C  0.07527929  0.36922951  0.90654019    -0.05300
C172        C  0.08616685  0.35807763  0.93753060     0.06900
C173        C  0.11925370  0.36772699  0.93883390     0.00700
H174        H  0.04944612  0.37135514  0.89877274     0.08300
H175        H  0.13421705  0.36897277  0.96111855     0.07400
N176        N  0.09257583  0.46159107  0.82217293    -0.36400
N177        N  0.10420416  0.49169179  0.82839119    -0.28600
C178        C  0.08914225  0.51401340  0.80761628    -0.03900
C179        C  0.06708877  0.49694216  0.78745577     0.04800
C180        C  0.07067430  0.46376949  0.79724488     0.02800
H181        H  0.09212783  0.54082294  0.80882682     0.07900
H182        H  0.05662253  0.44260258  0.78890402     0.06800
O183        O  0.54189912  0.56388873  0.87325530    -0.73300
O184        O  0.47045172  0.49677174  0.86237133    -0.74200
O185        O  0.53998362  0.49375778  0.86748955    -0.62900
O186        O  0.47090257  0.56633269  0.86801789    -0.71300
O187        O  0.47442229  0.57137401  0.81291810    -0.70800
O188        O  0.54551126  0.49815664  0.81247254    -0.62100
O189        O  0.47465795  0.50029151  0.80717290    -0.74600
O190        O  0.54686242  0.56944300  0.81830408    -0.73400
Cu191      Cu  0.50570342  0.53024044  0.86957344     1.04600
Cu192      Cu  0.51058001  0.53524778  0.81063985     1.04300
C193        C  0.55624651  0.57668032  0.84771955     0.92900
C194        C  0.46172692  0.48743905  0.83349113     0.92100
C195        C  0.55302108  0.48393344  0.84012968     0.84200
C196        C  0.46072880  0.57929590  0.84070357     0.90500
N197        N  0.61243936  0.68694854  0.99151329    -0.27600
N198        N  0.60751683  0.69839120  0.96090761    -0.35500
C199        C  0.58474164  0.72300863  0.96124178     0.00700
C200        C  0.57347204  0.72834883  0.99343410     0.06800
C201        C  0.59146727  0.70435184  0.01210835    -0.06300
H202        H  0.57335475  0.73255126  0.93867714     0.07400
H203        H  0.58735158  0.69814624  0.03810749     0.08600
Cu204      Cu  0.61704616  0.67385923  0.91711525     0.44200
Cu205      Cu  0.64598870  0.64563317  0.00009443     0.42000
Cu206      Cu  0.66647820  0.60828264  0.91744551     0.43900
N207        N  0.61010050  0.63815731  0.88144074    -0.35000
N208        N  0.63003399  0.61179004  0.88150641    -0.29200
C209        C  0.61552323  0.58717831  0.86450273    -0.05300
C210        C  0.58476832  0.59868778  0.85299211     0.06900
C211        C  0.58210792  0.63113935  0.86459898     0.00700
H212        H  0.62386652  0.56133530  0.86537568     0.08300
H213        H  0.55943034  0.64619782  0.86560011     0.07400
N214        N  0.69222601  0.59891927  0.96090351    -0.36400
N215        N  0.68411830  0.60853108  0.99143422    -0.28600
C216        C  0.70308364  0.59015620  0.01306557    -0.03900
C217        C  0.72372782  0.56826748  0.99493409     0.04800
C218        C  0.71622532  0.57539100  0.96214380     0.02800
H219        H  0.70058629  0.59111254  0.03989456     0.07900
H220        H  0.72566483  0.56282273  0.94026075     0.06800
C221        C  0.50054116  0.25044167  0.02927264     0.86200
C222        C  0.53450064  0.26754236  0.02183225    -0.54100
C223        C  0.53705607  0.27960461  0.98948822     0.09100
C224        C  0.50591283  0.27263499  0.96827538     0.20000
C225        C  0.47427205  0.27763173  0.01954514    -0.54800
C226        C  0.47673396  0.28886564  0.98749394     0.09200
C227        C  0.49741987  0.22350710  0.00258964    -0.54300
C228        C  0.50027750  0.23508662  0.97079435     0.09800
H229        H  0.55367555  0.27098947  0.04041849     0.14300
H230        H  0.50737306  0.28094265  0.94206269     0.00000
H231        H  0.45528164  0.28707583  0.03662293     0.14600
H232        H  0.49008171  0.19798156  0.00832492     0.14400
O233        O  0.32080751  0.05834040  0.05050499    -0.73300
O234        O  0.31363250  0.98671981  0.98033221    -0.74200
O235        O  0.31626104  0.98623093  0.05124044    -0.62900
O236        O  0.31782672  0.05751579  0.97905031    -0.71300
O237        O  0.37336128  0.05300157  0.97710821    -0.70800
O238        O  0.37182420  0.98305387  0.04829837    -0.62100
O239        O  0.36925408  0.98341568  0.97875185    -0.74600
O240        O  0.37625614  0.05370428  0.04743317    -0.73400
Cu241      Cu  0.31503809  0.02246202  0.01556907     1.04600
Cu242      Cu  0.37448677  0.01826939  0.01298782     1.04300
C243        C  0.34993260  0.06736651  0.05962230     0.92900
C244        C  0.34074372  0.97416647  0.96848198     0.92100
C245        C  0.34400730  0.97272213  0.06010349     0.84200
C246        C  0.34600611  0.06543595  0.96608193     0.90500
N247        N  0.47445347  0.92171960  0.83798026    -0.27600
N248        N  0.44546042  0.93728508  0.83288747    -0.35500
C249        C  0.44944271  0.96138269  0.80975021     0.00700
C250        C  0.48253361  0.96150040  0.79943063     0.06800
C251        C  0.49769611  0.93581220  0.81776693    -0.06300
H252        H  0.42952497  0.97811734  0.80188461     0.07400
H253        H  0.52383470  0.92841461  0.81708296     0.08600
Cu254      Cu  0.40162685  0.93019409  0.85962449     0.44200
Cu255      Cu  0.48109352  0.88326328  0.87381562     0.42000
Cu256      Cu  0.40323719  0.86854441  0.91972628     0.43900
N257        N  0.36657855  0.92941741  0.89770110    -0.35000
N258        N  0.36720939  0.90561342  0.92060853    -0.29200
C259        C  0.35132207  0.91653316  0.94808460    -0.05300
C260        C  0.34021206  0.94900047  0.94245957     0.06900
C261        C  0.35018872  0.95614284  0.91002660     0.00700
H262        H  0.35384513  0.90459243  0.97228121     0.08300
H263        H  0.35159137  0.98091129  0.89898414     0.07400
N264        N  0.44702348  0.84223921  0.92761052    -0.36400
N265        N  0.47600761  0.84732541  0.91232129    -0.28600
C266        C  0.49928397  0.82711696  0.92671462    -0.03900
C267        C  0.48396550  0.80891252  0.95234080     0.04800
C268        C  0.45089281  0.81928325  0.95181117     0.02800
H269        H  0.52544785  0.82624094  0.91952156     0.07900
H270        H  0.43076997  0.81143717  0.96814389     0.06800
C271        C  0.50454140  0.04479890  0.23262424     0.86200
C272        C  0.47899028  0.03523743  0.26037653    -0.54100
C273        C  0.48209192  0.00324293  0.27197724     0.09100
C274        C  0.51109624  0.98394323  0.25552777     0.20000
C275        C  0.53893255  0.03783399  0.24911440    -0.54800
C276        C  0.54211535  0.00561131  0.26160688     0.09200
C277        C  0.50097222  0.01756378  0.20625357    -0.54300
C278        C  0.50442923  0.98581248  0.21822774     0.09800
H279        H  0.46004962  0.05235451  0.26997734     0.14300
H280        H  0.51319004  0.95777891  0.26420301     0.00000
H281        H  0.55787855  0.05675743  0.25209825     0.14600
H282        H  0.49283574  0.02289608  0.18096139     0.14400
N283        N  0.48132049  0.91388544  0.16853403    -0.27600
N284        N  0.45178714  0.92538493  0.17884469    -0.35500
C285        C  0.45613676  0.95180160  0.19846474     0.00700
C286        C  0.48985111  0.95747797  0.20078832     0.06800
C287        C  0.50537577  0.93299921  0.18177147    -0.06300
H288        H  0.43603890  0.96697451  0.20878120     0.07400
H289        H  0.53192922  0.93012414  0.17685939     0.08600
Cu290      Cu  0.40583582  0.91260275  0.16076749     0.44200
Cu291      Cu  0.48695152  0.87478595  0.13443042     0.42000
Cu292      Cu  0.40670094  0.85884360  0.09527619     0.43900
N293        N  0.37053015  0.91726802  0.12422077    -0.35000
N294        N  0.37132624  0.89720217  0.09843093    -0.29200
C295        C  0.35570753  0.91251653  0.07286479    -0.05300
C296        C  0.34476451  0.94392906  0.08290456     0.06900
C297        C  0.35464434  0.94590607  0.11574411     0.00700
H298        H  0.35785581  0.90427578  0.04733174     0.08300
H299        H  0.35621470  0.96866408  0.12995761     0.07400
N300        N  0.44962057  0.82964001  0.08868675    -0.36400
N301        N  0.47959768  0.83599133  0.10065906    -0.28600
C302        C  0.50226501  0.81534908  0.08589335    -0.03900
C303        C  0.48558116  0.79514980  0.06361063     0.04800
C304        C  0.45224342  0.80482263  0.06670934     0.02800
H305        H  0.52905800  0.81662073  0.08931882     0.07900
H306        H  0.43126085  0.79621264  0.05248871     0.06800
N307        N  0.47830042  0.18331379  0.90019192    -0.27600
N308        N  0.44860573  0.19092410  0.91326570    -0.35500
C309        C  0.45250276  0.21104467  0.93929645     0.00700
C310        C  0.48603682  0.21662120  0.94306914     0.06800
C311        C  0.50196955  0.19896915  0.91788438    -0.06300
H312        H  0.43240196  0.21941276  0.95556061     0.07400
H313        H  0.52867673  0.19639588  0.91373463     0.08600
Cu314      Cu  0.40368155  0.16893225  0.90368724     0.44200
Cu315      Cu  0.48535021  0.14898075  0.86145228     0.42000
Cu316      Cu  0.40790170  0.10294662  0.85202298     0.43900
N317        N  0.37115183  0.13019975  0.91024416    -0.35000
N318        N  0.37341551  0.10404376  0.89071166    -0.29200
C319        C  0.35936499  0.07777816  0.90628445    -0.05300
C320        C  0.34763725  0.08791334  0.93720495     0.06900
C321        C  0.35573368  0.12136374  0.93885632     0.00700
H322        H  0.36260727  0.05216301  0.89830615     0.08300
H323        H  0.35601975  0.13621630  0.96122062     0.07400
N324        N  0.44946418  0.09791582  0.82132209    -0.36400
N325        N  0.47876872  0.11232895  0.82515001    -0.28600
C326        C  0.50119113  0.09766189  0.80421476    -0.03900
C327        C  0.48493260  0.07292043  0.78655420     0.04800
C328        C  0.45215375  0.07445995  0.79800176     0.02800
H329        H  0.52766644  0.10307328  0.80348075     0.07900
H330        H  0.43171657  0.05832173  0.79183465     0.06800
O331        O  0.87184813  0.49760373  0.47711379    -0.73300
O332        O  0.87898967  0.56702146  0.54709944    -0.74200
O333        O  0.87606689  0.49613042  0.54648714    -0.62900
O334        O  0.87504998  0.56743215  0.47657389    -0.71300
O335        O  0.81952590  0.57112780  0.47960598    -0.70800
O336        O  0.82051785  0.49812942  0.55043687    -0.62100
O337        O  0.82351957  0.57007781  0.55132852    -0.74600
O338        O  0.81622960  0.50007233  0.47999830    -0.73400
Cu339      Cu  0.87732196  0.53211610  0.51183534     1.04600
Cu340      Cu  0.81787978  0.53515128  0.51562336     1.04300
C341        C  0.84321123  0.48778119  0.46767858     0.92900
C342        C  0.85253270  0.57943933  0.56035172     0.92100
C343        C  0.84867359  0.48489083  0.55842037     0.84200
C344        C  0.84736119  0.57967444  0.46620899     0.90500
N345        N  0.99104756  0.70011955  0.61242223    -0.27600
N346        N  0.96043224  0.71092151  0.60560548    -0.35500
C347        C  0.96179690  0.73550167  0.58297370     0.00700
C348        C  0.99475355  0.74122666  0.57375010     0.06800
C349        C  0.01271727  0.71769012  0.59288083    -0.06300
H350        H  0.93977371  0.74457915  0.57007831     0.07400
H351        H  0.03910330  0.71170948  0.59033192     0.08600
Cu352      Cu  0.91660377  0.68519384  0.61291223     0.44200
Cu353      Cu  0.99873234  0.65944201  0.64622784     0.42000
Cu354      Cu  0.91494017  0.62581979  0.66947520     0.43900
N355        N  0.88204270  0.64776131  0.60826558    -0.35000
N356        N  0.88113310  0.62403827  0.63114198    -0.29200
C357        C  0.86566134  0.59725960  0.61875421    -0.05300
C358        C  0.85614384  0.60459991  0.58633744     0.06900
C359        C  0.86729677  0.63684432  0.58049899     0.00700
H360        H  0.86640655  0.57264504  0.63020961     0.08300
H361        H  0.86946840  0.64908780  0.55641950     0.07400
N362        N  0.95864892  0.61718372  0.69519602    -0.36400
N363        N  0.98947178  0.62438888  0.68541456    -0.28600
C364        C  0.01085682  0.60432931  0.70288887    -0.03900
C365        C  0.99251976  0.58441749  0.72523965     0.04800
C366        C  0.95964279  0.59370140  0.71899365     0.02800
H367        H  0.03739928  0.60208795  0.69762960     0.07900
H368        H  0.93753387  0.58051968  0.72725344     0.06800
O369        O  0.56055637  0.83097825  0.55277439    -0.73300
O370        O  0.48989771  0.82246500  0.48184820    -0.74200
O371        O  0.56080239  0.82762639  0.48099501    -0.62900
O372        O  0.48845006  0.82589061  0.55238714    -0.71300
O373        O  0.48485820  0.88132819  0.54875413    -0.70800
O374        O  0.55581582  0.88302483  0.47870597    -0.62100
O375        O  0.48612395  0.87797247  0.47947275    -0.74600
O376        O  0.55558654  0.88630046  0.54913447    -0.73400
Cu377      Cu  0.52528286  0.82465742  0.51732024     1.04600
Cu378      Cu  0.52060949  0.88396583  0.51409163     1.04300
C379        C  0.56913931  0.86017195  0.56189921     0.92900
C380        C  0.47702035  0.84927129  0.46970160     0.92100
C381        C  0.56846683  0.85579502  0.46779821     0.84200
C382        C  0.47439223  0.85356490  0.56048598     0.90500
N383        N  0.68663520  0.00478870  0.60550830    -0.27600
N384        N  0.69760601  0.97431031  0.59856693    -0.35500
C385        C  0.72149665  0.97579757  0.57526756     0.00700
C386        C  0.72676710  0.00869193  0.56572618     0.06800
C387        C  0.70348467  0.02651667  0.58529766    -0.06300
H388        H  0.73062904  0.95378018  0.56250586     0.07400
H389        H  0.69740504  0.05286438  0.58291798     0.08600
Cu390      Cu  0.67356301  0.92989068  0.60758336     0.44200
Cu391      Cu  0.64705297  0.01185935  0.64103574     0.42000
Cu392      Cu  0.61792707  0.92705942  0.66690104     0.43900
N393        N  0.63811444  0.89304583  0.60604528    -0.35000
N394        N  0.61545113  0.89196949  0.62991439    -0.29200
C395        C  0.58878405  0.87500816  0.61924275    -0.05300
C396        C  0.59516438  0.86454328  0.58694440     0.06900
C397        C  0.62671769  0.87674529  0.57941596     0.00700
H398        H  0.56458270  0.87537750  0.63158586     0.08300
H399        H  0.63772265  0.87875851  0.55475708     0.07400
N400        N  0.60860228  0.97060084  0.69234797    -0.36400
N401        N  0.61365976  0.00157402  0.68172029    -0.28600
C402        C  0.59276193  0.02197090  0.69938653    -0.03900
C403        C  0.57457487  0.00284186  0.72264562     0.04800
C404        C  0.58582442  0.97057149  0.71681546     0.02800
H405        H  0.58863982  0.04818331  0.69363883     0.07900
H406        H  0.57424118  0.94783213  0.72571755     0.06800
C407        C  0.24614821  0.05006619  0.49558740     0.86200
C408        C  0.26324376  0.04213838  0.52933708    -0.54100
C409        C  0.27417038  0.00931448  0.53210209     0.09100
C410        C  0.26618624  0.98815995  0.50137130     0.20000
C411        C  0.27281146  0.03918180  0.46940110    -0.54800
C412        C  0.28283153  0.00661444  0.47208285     0.09200
C413        C  0.21812010  0.02430991  0.49272276    -0.54300
C414        C  0.22865431  0.99205225  0.49595572     0.09800
H415        H  0.26746287  0.06073737  0.54826883     0.14300
H416        H  0.27358552  0.96158176  0.50312455     0.00000
H417        H  0.28288481  0.05580708  0.45038437     0.14600
H418        H  0.19266447  0.03094225  0.48563531     0.14400
O419        O  0.05812093  0.06060602  0.37369475    -0.73300
O420        O  0.98811202  0.99127074  0.36576230    -0.74200
O421        O  0.05781267  0.98973504  0.36982135    -0.62900
O422        O  0.98738573  0.06085432  0.37006877    -0.71300
O423        O  0.98990944  0.06509782  0.31485004    -0.70800
O424        O  0.06178306  0.99253676  0.31460415    -0.62100
O425        O  0.99085704  0.99438984  0.31045079    -0.74600
O426        O  0.06187009  0.06470983  0.31854111    -0.73400
Cu427      Cu  0.02293936  0.02562590  0.37165842     1.04600
Cu428      Cu  0.02645726  0.02947215  0.31255123     1.04300
C429        C  0.07081323  0.07386334  0.34750925     0.92900
C430        C  0.97836135  0.98203101  0.33716102     0.92100
C431        C  0.06978447  0.97884200  0.34240967     0.84200
C432        C  0.97657592  0.07321320  0.34274565     0.90500
N433        N  0.91942733  0.85799321  0.47108325    -0.27600
N434        N  0.93511719  0.85165113  0.44267508    -0.35500
C435        C  0.95872211  0.82810850  0.44763738     0.00700
C436        C  0.95827992  0.81881496  0.48084729     0.06800
C437        C  0.93283597  0.83816858  0.49505291    -0.06300
H438        H  0.97536155  0.81916856  0.42824344     0.07400
H439        H  0.92512149  0.83839325  0.52094518     0.08600
Cu440      Cu  0.92835835  0.87722847  0.39852140     0.44200
Cu441      Cu  0.88179278  0.89477484  0.47501981     0.42000
Cu442      Cu  0.86838736  0.94027692  0.39584132     0.43900
N443        N  0.92955800  0.91397955  0.36242820    -0.35000
N444        N  0.90670371  0.93798700  0.36130971    -0.29200
C445        C  0.91948768  0.96449574  0.34509561    -0.05300
C446        C  0.95219783  0.95707161  0.33591696     0.06900
C447        C  0.95749056  0.92461038  0.34705596     0.00700
H448        H  0.90857093  0.98937109  0.34632470     0.08300
H449        H  0.98171597  0.91255631  0.35009196     0.07400
N450        N  0.84124149  0.94839847  0.43894760    -0.36400
N451        N  0.84605878  0.93298180  0.46786750    -0.28600
C452        C  0.82507885  0.94664328  0.49059567    -0.03900
C453        C  0.80645415  0.97190371  0.47515434     0.04800
C454        C  0.81749030  0.97211749  0.44246123     0.02800
H455        H  0.82386802  0.93901357  0.51650127     0.07900
H456        H  0.80941270  0.98854955  0.42247404     0.06800
C457        C  0.04133775  0.25334837  0.49926703     0.86200
C458        C  0.03102992  0.28079362  0.47367952    -0.54100
C459        C  0.99877045  0.29168035  0.47663466     0.09100
C460        C  0.97995342  0.27501428  0.50570901     0.20000
C461        C  0.03421932  0.26995420  0.53337504    -0.54800
C462        C  0.00164532  0.28171392  0.53651863     0.09200
C463        C  0.01467033  0.22624371  0.49611980    -0.54300
C464        C  0.98263679  0.23756034  0.49958784     0.09800
H465        H  0.04784655  0.29060604  0.45468463     0.14300
H466        H  0.95357951  0.28318785  0.50755886     0.00000
H467        H  0.05312956  0.27327902  0.55225206     0.14600
H468        H  0.02054097  0.20088417  0.48830538     0.14400
N469        N  0.91098851  0.18678210  0.47723010    -0.27600
N470        N  0.92382764  0.19513433  0.44778464    -0.35500
C471        C  0.95029743  0.21476762  0.45190760     0.00700
C472        C  0.95467123  0.21924889  0.48535749     0.06800
C473        C  0.92929616  0.20150156  0.50101695    -0.06300
H474        H  0.96635272  0.22367099  0.43192771     0.07400
H475        H  0.92532126  0.19837724  0.52755339     0.08600
Cu476      Cu  0.91321133  0.17475090  0.40259497     0.44200
Cu477      Cu  0.87133318  0.15305692  0.48314386     0.42000
Cu478      Cu  0.86095604  0.10944242  0.40408107     0.43900
N479        N  0.92003209  0.13721192  0.36888981    -0.35000
N480        N  0.90034490  0.11107987  0.37005711    -0.29200
C481        C  0.91614926  0.08529837  0.35523444    -0.05300
C482        C  0.94742505  0.09571141  0.34421116     0.06900
C483        C  0.94895288  0.12884219  0.35354286     0.00700
H484        H  0.90812019  0.05961306  0.35751910     0.08300
H485        H  0.97144931  0.14358426  0.35472378     0.07400
N486        N  0.82888080  0.10542970  0.44487936    -0.36400
N487        N  0.83310831  0.11862815  0.47458438    -0.28600
C488        C  0.81085911  0.10459520  0.49609521    -0.03900
C489        C  0.79181498  0.08159898  0.47887717     0.04800
C490        C  0.80387363  0.08355589  0.44644372     0.02800
H491        H  0.81020670  0.10903070  0.52262750     0.07900
H492        H  0.79699044  0.06851764  0.42549789     0.06800
N493        N  0.17467947  0.92182410  0.47770754    -0.27600
N494        N  0.18665914  0.92994785  0.44783981    -0.35500
C495        C  0.20762027  0.95560159  0.45046779     0.00700
C496        C  0.20900737  0.96433743  0.48332970     0.06800
C497        C  0.18812654  0.94246596  0.50023417    -0.06300
H498        H  0.21971810  0.96807446  0.42963184     0.07400
H499        H  0.18252106  0.94208423  0.52664582     0.08600
Cu500      Cu  0.16955677  0.91432394  0.40272162     0.44200
Cu501      Cu  0.13916694  0.88437943  0.48596409     0.42000
Cu502      Cu  0.10201655  0.86455139  0.40647969     0.43900
N503        N  0.13241061  0.92059186  0.36834642    -0.35000
N504        N  0.10551721  0.90195980  0.37038457    -0.29200
C505        C  0.08006266  0.91836610  0.35552083    -0.05300
C506        C  0.09139516  0.94899115  0.34367264     0.06900
C507        C  0.12481537  0.94942250  0.35240639     0.00700
H508        H  0.05407182  0.91150093  0.35862424     0.08300
H509        H  0.14030895  0.97141323  0.35310218     0.07400
N510        N  0.09509935  0.83681677  0.45000015    -0.36400
N511        N  0.10591172  0.84486081  0.47985455    -0.28600
C512        C  0.09062541  0.82507868  0.50283650    -0.03900
C513        C  0.06927683  0.80361537  0.48643092     0.04800
C514        C  0.07349846  0.81166155  0.45299407     0.02800
H515        H  0.09296392  0.82780787  0.52949226     0.07900
H516        H  0.06011287  0.80182025  0.43208587     0.06800
N517        N  0.41046876  0.98779828  0.66853680    -0.27600
N518        N  0.42099685  0.95797266  0.67901847    -0.35500
C519        C  0.44679968  0.96151118  0.69967010     0.00700
C520        C  0.45313601  0.99496925  0.70247548     0.06800
C521        C  0.42968674  0.01123118  0.68266118    -0.06300
H522        H  0.46120019  0.94101101  0.71034361     0.07400
H523        H  0.42755133  0.03784783  0.67790958     0.08600
Cu524      Cu  0.40852104  0.91259251  0.65977920     0.44200
Cu525      Cu  0.37245508  0.99464712  0.63322309     0.42000
Cu526      Cu  0.35882782  0.91586769  0.59121430     0.43900
N527        N  0.41567082  0.87881314  0.62234213    -0.35000
N528        N  0.39704017  0.88048487  0.59546746    -0.29200
C529        C  0.41370882  0.86563146  0.57035371    -0.05300
C530        C  0.44452453  0.85426377  0.58184905     0.06900
C531        C  0.44478533  0.86318539  0.61502459     0.00700
H532        H  0.40680836  0.86848076  0.54445178     0.08300
H533        H  0.46673910  0.86415999  0.63058039     0.07400
N534        N  0.32962546  0.95867677  0.58437796    -0.36400
N535        N  0.33500237  0.98822485  0.59763431    -0.28600
C536        C  0.31443321  0.01103919  0.58289006    -0.03900
C537        C  0.29531138  0.99487914  0.55926491     0.04800
C538        C  0.30561057  0.96168745  0.56150272     0.02800
H539        H  0.31487146  0.03762733  0.58751390     0.07900
H540        H  0.29798173  0.94106742  0.54632481     0.06800
N541        N  0.98223653  0.34303241  0.60181827    -0.27600
N542        N  0.95250705  0.33805992  0.58863421    -0.35500
C543        C  0.95488703  0.31357608  0.56635678     0.00700
C544        C  0.98790214  0.30271162  0.56405266     0.06800
C545        C  0.00461355  0.32183332  0.58732713    -0.06300
H546        H  0.93399571  0.30628020  0.55133764     0.07400
H547        H  0.03130506  0.32196443  0.59169663     0.08600
Cu548      Cu  0.91055958  0.36884170  0.59293412     0.44200
Cu549      Cu  0.98941056  0.38082314  0.63689161     0.42000
Cu550      Cu  0.90719988  0.41935531  0.65948113     0.43900
N551        N  0.87605626  0.40793149  0.59486841    -0.35000
N552        N  0.87415886  0.42691203  0.62139839    -0.29200
C553        C  0.85884449  0.45600215  0.61341443    -0.05300
C554        C  0.85029045  0.45529094  0.58013666     0.06900
C555        C  0.86174720  0.42436045  0.56920867     0.00700
H556        H  0.85952011  0.47806914  0.62874357     0.08300
H557        H  0.86465101  0.41697647  0.54347784     0.07400
N558        N  0.95223432  0.43137754  0.67981796    -0.36400
N559        N  0.98223306  0.41975921  0.67108202    -0.28600
C560        C  0.00554176  0.43880574  0.68569356    -0.03900
C561        C  0.98898863  0.46341955  0.70373358     0.04800
C562        C  0.95551737  0.45781071  0.69958798     0.02800
H563        H  0.03231844  0.43582527  0.68233769     0.07900
H564        H  0.93490106  0.47299278  0.70883630     0.06800
N565        N  0.19144365  0.12449051  0.48617095    -0.27600
N566        N  0.20195788  0.11857422  0.45544537    -0.35500
C567        C  0.22643551  0.09561189  0.45591982     0.00700
C568        C  0.23233649  0.08508036  0.48831841     0.06800
C569        C  0.20916139  0.10399042  0.50695111    -0.06300
H570        H  0.23511482  0.08331343  0.43354484     0.07400
H571        H  0.20336429  0.10051372  0.53312308     0.08600
Cu572      Cu  0.17582785  0.12677312  0.41212880     0.44200
Cu573      Cu  0.15065004  0.15828581  0.49548964     0.42000
Cu574      Cu  0.11483087  0.18159406  0.41347132     0.43900
N575        N  0.13824500  0.12245949  0.37775244    -0.35000
N576        N  0.11373974  0.14466373  0.37820410    -0.29200
C577        C  0.08714010  0.13218572  0.36250345    -0.05300
C578        C  0.09538388  0.10039994  0.35142861     0.06900
C579        C  0.12802428  0.09501199  0.36186382     0.00700
H580        H  0.06213554  0.14282283  0.36411503     0.08300
H581        H  0.14103608  0.07113237  0.36286813     0.07400
N582        N  0.10743359  0.20770421  0.45688972    -0.36400
N583        N  0.11515690  0.19789236  0.48745401    -0.28600
C584        C  0.09568408  0.21588989  0.50891508    -0.03900
C585        C  0.07579239  0.23873765  0.49082355     0.04800
C586        C  0.08443399  0.23208255  0.45806290     0.02800
H587        H  0.09388915  0.21081034  0.53538716     0.07900
H588        H  0.07101073  0.24052610  0.43619053     0.06800
N589        N  0.67572867  0.99269101  0.40170616    -0.27600
N590        N  0.68640970  0.96338614  0.41346319    -0.35500
C591        C  0.70642294  0.96813071  0.43949727     0.00700
C592        C  0.70861016  0.00184129  0.44476438     0.06800
C593        C  0.68910567  0.01699564  0.42037513    -0.06300
H594        H  0.71698700  0.94828334  0.45480839     0.07400
H595        H  0.68396394  0.04346419  0.41727528     0.08600
Cu596      Cu  0.66803656  0.91717900  0.40252971     0.44200
Cu597      Cu  0.64104592  0.99771066  0.36279575     0.42000
Cu598      Cu  0.60030767  0.91761243  0.35184265     0.43900
N599        N  0.63090108  0.88295830  0.41017466    -0.35000
N600        N  0.60420231  0.88363173  0.39116279    -0.29200
C601        C  0.57907237  0.86835345  0.40750898    -0.05300
C602        C  0.59042324  0.85762427  0.43844897     0.06900
C603        C  0.62346813  0.86755037  0.43921729     0.00700
H604        H  0.55312530  0.87014913  0.40004332     0.08300
H605        H  0.63877265  0.86901764  0.46125289     0.07400
N606        N  0.59418518  0.95872186  0.32024787    -0.36400
N607        N  0.60670384  0.98879198  0.32465136    -0.28600
C608        C  0.59218057  0.01027004  0.30260735    -0.03900
C609        C  0.56952191  0.99268356  0.28349909     0.04800
C610        C  0.57214644  0.96005604  0.29535899     0.02800
H611        H  0.59609643  0.03699046  0.30208155     0.07900
H612        H  0.55756150  0.93878371  0.28825205     0.06800
N613        N  0.98177832  0.69051257  0.40883694    -0.27600
N614        N  0.95204630  0.70049350  0.42015565    -0.35500
C615        C  0.95598969  0.71947798  0.44701800     0.00700
C616        C  0.98958078  0.72172379  0.45314564     0.06800
C617        C  0.00553210  0.70347848  0.42845128    -0.06300
H618        H  0.93568048  0.72968662  0.46193218     0.07400
H619        H  0.03217980  0.69908281  0.42557512     0.08600
Cu620      Cu  0.90602154  0.68333627  0.40667424     0.44200
Cu621      Cu  0.98860403  0.65760384  0.36904094     0.42000
Cu622      Cu  0.90826172  0.62032493  0.35215047     0.43900
N623        N  0.87209073  0.64564887  0.41164407    -0.35000
N624        N  0.87389509  0.62010074  0.39130910    -0.29200
C625        C  0.85970119  0.59353961  0.40633324    -0.05300
C626        C  0.84833662  0.60285764  0.43772349     0.06900
C627        C  0.85682682  0.63616099  0.44013965     0.00700
H628        H  0.86269800  0.56813912  0.39766222     0.08300
H629        H  0.85775938  0.65026207  0.46295958     0.07400
N630        N  0.95002918  0.61677016  0.32108269    -0.36400
N631        N  0.98055444  0.62641221  0.32847001    -0.28600
C632        C  0.00261954  0.61052184  0.30805922    -0.03900
C633        C  0.98499042  0.59077193  0.28595585     0.04800
C634        C  0.95174452  0.59586315  0.29543664     0.02800
H635        H  0.02948342  0.61052642  0.31131567     0.07900
H636        H  0.93072060  0.58094537  0.28799246     0.06800
N637        N  0.67384380  0.41597161  0.97326609    -0.27600
N638        N  0.68033026  0.43181272  0.94486434    -0.35500
C639        C  0.70244008  0.45606542  0.95005379     0.00700
C640        C  0.71064311  0.45580128  0.98330359     0.06800
C641        C  0.69221880  0.42988315  0.99736384    -0.06300
H642        H  0.71133488  0.47288753  0.93076439     0.07400
H643        H  0.69168565  0.42208199  0.02324219     0.08600
Cu644      Cu  0.65678087  0.42525017  0.90026167     0.44200
Cu645      Cu  0.63903925  0.37733729  0.97807051     0.42000
Cu646      Cu  0.59349493  0.36879499  0.89988473     0.43900
N647        N  0.61904807  0.43002622  0.86626333    -0.35000
N648        N  0.59390168  0.40903389  0.86676360    -0.29200
C649        C  0.56750450  0.42379223  0.85181186    -0.05300
C650        C  0.57653834  0.45563779  0.84130527     0.06900
C651        C  0.60948014  0.45859633  0.85100581     0.00700
H652        H  0.54220191  0.41450794  0.85363881     0.08300
H653        H  0.62312253  0.48173599  0.85258123     0.07400
N654        N  0.58874643  0.33709263  0.94095587    -0.36400
N655        N  0.60289435  0.34073935  0.97032421    -0.28600
C656        C  0.58851935  0.31915803  0.99226280    -0.03900
C657        C  0.56424696  0.30114302  0.97570744     0.04800
C658        C  0.56575408  0.31314850  0.94319095     0.02800
H659        H  0.59382036  0.31817906  0.01863554     0.07900
H660        H  0.54987246  0.30689750  0.92263145     0.06800
N661        N  0.49309674  0.11849924  0.17673989    -0.27600
N662        N  0.46241608  0.11156829  0.18709245    -0.35500
C663        C  0.46352141  0.08854813  0.21133336     0.00700
C664        C  0.49636305  0.07912370  0.21747142     0.06800
C665        C  0.51457751  0.09850125  0.19435068    -0.06300
H666        H  0.44139472  0.07574310  0.22014617     0.07400
H667        H  0.54106926  0.09605377  0.18890829     0.08600
Cu668      Cu  0.41862522  0.11978225  0.16156313     0.44200
Cu669      Cu  0.50064481  0.15364421  0.13672215     0.42000
Cu670      Cu  0.41658745  0.17584161  0.10199752     0.43900
N671        N  0.38255561  0.11577098  0.12558220    -0.35000
N672        N  0.38164790  0.13826590  0.10151894    -0.29200
C673        C  0.36462049  0.12593584  0.07572048    -0.05300
C674        C  0.35407898  0.09394419  0.08406681     0.06900
C675        C  0.36627029  0.08835336  0.11589873     0.00700
H676        H  0.36496604  0.13683103  0.05092785     0.08300
H677        H  0.36816828  0.06434506  0.12848117     0.07400
N678        N  0.45973959  0.20299431  0.09486744    -0.36400
N679        N  0.49078176  0.19371883  0.10208397    -0.28600
C680        C  0.51169600  0.21251474  0.08276511    -0.03900
C681        C  0.49280218  0.23531972  0.06354650     0.04800
C682        C  0.46013547  0.22783611  0.07244309     0.02800
H683        H  0.53838789  0.20801723  0.08057569     0.07900
H684        H  0.43783223  0.23607336  0.05947828     0.06800
N685        N  0.40511885  0.68429079  0.97750788    -0.27600
N686        N  0.41555610  0.69552281  0.94807207    -0.35500
C687        C  0.44321957  0.71357907  0.95187610     0.00700
C688        C  0.45091037  0.71377982  0.98507762     0.06800
C689        C  0.42620046  0.69538787  0.00096489    -0.06300
H690        H  0.45762733  0.72447946  0.93163636     0.07400
H691        H  0.42425713  0.68967480  0.02730692     0.08600
Cu692      Cu  0.39989840  0.68030880  0.90225898     0.44200
Cu693      Cu  0.36483731  0.65160378  0.98367164     0.42000
Cu694      Cu  0.34667062  0.61452598  0.90349891     0.43900
N695        N  0.40483400  0.64370505  0.86722240    -0.35000
N696        N  0.38489571  0.61772668  0.86817982    -0.29200
C697        C  0.40040218  0.59202164  0.85292865    -0.05300
C698        C  0.43179067  0.60217723  0.84199810     0.06900
C699        C  0.43360451  0.63520867  0.85162462     0.00700
H700        H  0.39226344  0.56637441  0.85517686     0.08300
H701        H  0.45630634  0.64960245  0.85311037     0.07400
N702        N  0.31898529  0.60617530  0.94684636    -0.36400
N703        N  0.32616584  0.61753066  0.97672746    -0.28600
C704        C  0.30690945  0.60145117  0.99959162    -0.03900
C705        C  0.28678503  0.57889895  0.98315083     0.04800
C706        C  0.29501235  0.58321743  0.94976275     0.02800
H707        H  0.30919803  0.60414354  0.02625481     0.07900
H708        H  0.28609352  0.56917567  0.92887269     0.06800
N709        N  0.18324497  0.50294068  0.11036341    -0.27600
N710        N  0.19362564  0.47213641  0.10395483    -0.35500
C711        C  0.21782452  0.47278435  0.08085813     0.00700
C712        C  0.22384957  0.50542125  0.07090435     0.06800
C713        C  0.20079068  0.52398894  0.09005718    -0.06300
H714        H  0.22655107  0.45044511  0.06839326     0.07400
H715        H  0.19517471  0.55038472  0.08713092     0.08600
Cu716      Cu  0.16796943  0.42860931  0.11301624     0.44200
Cu717      Cu  0.14290056  0.51170395  0.14476646     0.42000
Cu718      Cu  0.10562062  0.42975952  0.16775911     0.43900
N719        N  0.13105033  0.39333191  0.10958252    -0.35000
N720        N  0.10642570  0.39362775  0.13152251    -0.29200
C721        C  0.08041127  0.37684198  0.11923617    -0.05300
C722        C  0.08909459  0.36524217  0.08787307     0.06900
C723        C  0.12143409  0.37646821  0.08254563     0.00700
H724        H  0.05532324  0.37804580  0.12960286     0.08300
H725        H  0.13452043  0.37730424  0.05883763     0.07400
N726        N  0.09626448  0.47407656  0.19215376    -0.36400
N727        N  0.10605421  0.50441069  0.18315165    -0.28600
C728        C  0.08786971  0.52683123  0.20131597    -0.03900
C729        C  0.06586673  0.50944403  0.22239671     0.04800
C730        C  0.07270703  0.47622654  0.21591251     0.02800
H731        H  0.08899837  0.55367274  0.19796252     0.07900
H732        H  0.05994809  0.45465592  0.22596311     0.06800
N733        N  0.97416578  0.35550118  0.41459456    -0.27600
N734        N  0.94560609  0.35071139  0.43079482    -0.35500
C735        C  0.95008920  0.32750405  0.45473055     0.00700
C736        C  0.98308321  0.31677114  0.45391168     0.06800
C737        C  0.99766919  0.33500212  0.42798932    -0.06300
H738        H  0.93056843  0.31973573  0.47182849     0.07400
H739        H  0.02354209  0.33393862  0.41982928     0.08600
Cu740      Cu  0.90188861  0.37764979  0.42382293     0.44200
Cu741      Cu  0.97954467  0.39106826  0.37609878     0.42000
Cu742      Cu  0.90103672  0.43649004  0.36000719     0.43900
N743        N  0.86718613  0.41608315  0.42295801    -0.35000
N744        N  0.86705538  0.43870582  0.39885714    -0.29200
C745        C  0.85200795  0.46669573  0.41001128    -0.05300
C746        C  0.84219831  0.46153797  0.44279942     0.06900
C747        C  0.85207701  0.42899611  0.44998245     0.00700
H748        H  0.85409629  0.49077863  0.39765302     0.08300
H749        H  0.85432199  0.41817221  0.47470525     0.07400
N750        N  0.94492885  0.44376684  0.33362444    -0.36400
N751        N  0.97408721  0.42899397  0.33988894    -0.28600
C752        C  0.99809218  0.44472469  0.32189290    -0.03900
C753        C  0.98302572  0.47035312  0.30366852     0.04800
C754        C  0.94949284  0.46891744  0.31180502     0.02800
H755        H  0.02464739  0.43941714  0.32369545     0.07900
H756        H  0.93017612  0.48665499  0.30444747     0.06800
N757        N  0.42091734  0.98000375  0.33701236    -0.27600
N758        N  0.43774688  0.95161912  0.33312720    -0.35500
C759        C  0.46148037  0.95566608  0.30967575     0.00700
C760        C  0.45984354  0.98820055  0.29779534     0.06800
C761        C  0.43368124  0.00298017  0.31568146    -0.06300
H762        H  0.47895109  0.93615710  0.30246882     0.07400
H763        H  0.42487210  0.02860415  0.31372530     0.08600
Cu764      Cu  0.43131714  0.90876857  0.36131105     0.44200
Cu765      Cu  0.38232809  0.98540118  0.37240356     0.42000
Cu766      Cu  0.36831882  0.90835815  0.42160067     0.43900
N767        N  0.43086284  0.87400114  0.39948689    -0.35000
N768        N  0.40712193  0.87389845  0.42248779    -0.29200
C769        C  0.41875680  0.85821554  0.44985679    -0.05300
C770        C  0.45155013  0.84810445  0.44398035     0.06900
C771        C  0.45813802  0.85833397  0.41158049     0.00700
H772        H  0.40688509  0.86014955  0.47411950     0.08300
H773        H  0.48278716  0.86044798  0.40036472     0.07400
N774        N  0.34102692  0.95216375  0.42686743    -0.36400
N775        N  0.34617544  0.98045584  0.41031771    -0.28600
C776        C  0.32582984  0.00430462  0.42322939    -0.03900
C777        C  0.30730101  0.99025943  0.44920960     0.04800
C778        C  0.31765991  0.95717881  0.45051232     0.02800
H779        H  0.32526902  0.03011019  0.41487848     0.07900
H780        H  0.30980677  0.93803388  0.46798728     0.06800
N781        N  0.41407592  0.35317108  0.96465696    -0.27600
N782        N  0.43029295  0.34914159  0.93605592    -0.35500
C783        C  0.45439609  0.32578162  0.93987698     0.00700
C784        C  0.45367799  0.31419084  0.97243884     0.06800
C785        C  0.42764633  0.33207830  0.98745175    -0.06300
H786        H  0.47156379  0.31848971  0.92023601     0.07400
H787        H  0.41953945  0.33039515  0.01318448     0.08600
Cu788      Cu  0.42282122  0.37701575  0.89301387     0.44200
Cu789      Cu  0.37524994  0.38851999  0.97151706     0.42000
Cu790      Cu  0.35829381  0.43576472  0.89533384     0.43900
N791        N  0.41945735  0.41515138  0.85805118    -0.35000
N792        N  0.39487780  0.43739807  0.85900564    -0.29200
C793        C  0.40466388  0.46534625  0.84307126    -0.05300
C794        C  0.43721147  0.46081506  0.83172099     0.06900
C795        C  0.44545604  0.42836644  0.84130662     0.00700
H796        H  0.39205113  0.48926925  0.84593943     0.08300
H797        H  0.47063586  0.41810238  0.84250585     0.07400
N798        N  0.33287004  0.44287883  0.93956274    -0.36400
N799        N  0.33891557  0.42688564  0.96791121    -0.28600
C800        C  0.31947564  0.44071492  0.99195278    -0.03900
C801        C  0.30070840  0.46676817  0.97787160     0.04800
C802        C  0.30995446  0.46707116  0.94464201     0.02800
H803        H  0.31961124  0.43291780  0.01783650     0.07900
H804        H  0.30142650  0.48405077  0.92530681     0.06800
loop_ 
_geom_bond_atom_site_label_1 
_geom_bond_atom_site_label_2 
_geom_bond_distance 
_geom_bond_site_symmetry_2 
_ccdc_geom_bond_type 
C1            C2   1.548       .  S
C1            C7   1.535       .  S
C1            C5   1.541       .  S
C1          C155   1.515       .  S
C2            H9   1.085       .  S
C2            C3   1.379       .  D
C3            C4   1.553   1_554  S
C3          C217   1.496   1_554  S
C4            C8   1.530       .  S
C4            C6   1.536       .  S
C4           H10   1.103       .  S
C5           H11   1.086       .  S
C5            C6   1.358   1_554  D
C6          C640   1.479       .  S
C7           H12   1.088       .  S
C7            C8   1.358   1_554  D
C8          C119   1.475       .  S
C13          C14   1.554   1_554  S
C13          C19   1.539   1_554  S
C13          C17   1.550       .  S
C13         C200   1.528   1_554  S
C14          H21   1.085       .  S
C14          C15   1.360       .  D
C15          C16   1.534   1_556  S
C15         C267   1.488       .  S
C16          C20   1.522   1_554  S
C16          C18   1.540       .  S
C16          H22   1.102       .  S
C17          H23   1.085       .  S
C17          C18   1.381       .  D
C18         C303   1.491       .  S
C19          H24   1.087       .  S
C19          C20   1.360       .  D
C20         C688   1.465       .  S
C25          C26   1.548   1_455  S
C25          C31   1.536   1_455  S
C25          C29   1.549       .  S
C25         C365   1.521   1_455  S
C26          H33   1.085       .  S
C26          C27   1.359       .  D
C27          C28   1.534   1_655  S
C27         C102   1.483       .  S
C28          C32   1.523       .  S
C28          C30   1.542       .  S
C28          H34   1.102       .  S
C29          H35   1.085       .  S
C29          C30   1.381       .  D
C30         C179   1.489       .  S
C31          H36   1.087       .  S
C31          C32   1.359   1_655  D
C32         C561   1.466   1_455  S
C37          C38   1.548       .  S
C37          C43   1.536       .  S
C37          C41   1.552   1_545  S
C37         C403   1.524       .  S
C38          H45   1.085       .  S
C38          C39   1.380       .  D
C39          C40   1.544       .  S
C39         C327   1.490       .  S
C40          C44   1.524       .  S
C40          C42   1.534   1_545  S
C40          H46   1.101       .  S
C41          H47   1.085       .  S
C41          C42   1.361       .  D
C42         C250   1.489       .  S
C43          H48   1.087   1_545  S
C43          C44   1.358       .  D
C44         C520   1.466   1_545  S
C49          C50   1.549   1_545  S
C49          C55   1.536       .  S
C49          C53   1.550       .  S
C49         C386   1.527       .  S
C50          H57   1.085       .  S
C50          C51   1.359       .  D
C51          C52   1.532   1_565  S
C51         C453   1.484       .  S
C52          C56   1.524       .  S
C52          C54   1.544       .  S
C52          H58   1.102       .  S
C53          H59   1.085       .  S
C53          C54   1.383       .  D
C54         C489   1.493       .  S
C55          H60   1.087       .  S
C55          C56   1.359       .  D
C56         C592   1.468       .  S
C61          C62   1.551       .  S
C61          C67   1.537   1_455  S
C61          C65   1.550   1_455  S
C61         C348   1.523   1_455  S
C62          H69   1.085       .  S
C62          C63   1.382       .  D
C63          C64   1.541       .  S
C63         C513   1.490       .  S
C64          C68   1.521       .  S
C64          C66   1.533   1_455  S
C64          H70   1.102       .  S
C65          H71   1.085       .  S
C65          C66   1.359       .  D
C66         C436   1.483       .  S
C67          H72   1.087       .  S
C67          C68   1.358   1_655  D
C68         C616   1.463   1_455  S
C73          C74   1.552       .  S
C73          C79   1.537       .  S
C73          C77   1.550       .  S
C73         C712   1.527       .  S
C74          H81   1.085       .  S
C74          C75   1.361   1_554  D
C75          C76   1.535       .  S
C75         C801   1.488       .  S
C76          C80   1.522       .  S
C76          C78   1.541       .  S
C76          H82   1.102       .  S
C77          H83   1.085       .  S
C77          C78   1.381   1_554  D
C78         C705   1.490       .  S
C79          H84   1.087       .  S
C79          C80   1.359   1_554  D
C80         C162   1.464       .  S
O85         Cu93   1.996       .  S
O85          C95   1.276       .  A
O86         Cu93   1.982   1_656  S
O86          C96   1.275       .  A
O87         Cu93   1.989   1_655  S
O87          C97   1.275       .  A
O88         Cu93   1.991   1_556  S
O88          C98   1.275       .  A
O89         Cu94   2.029   1_556  S
O89          C98   1.279       .  A
O90         Cu94   2.029   1_655  S
O90          C97   1.279       .  A
O91         Cu94   2.018   1_656  S
O91          C96   1.277       .  A
O92         Cu94   2.030       .  S
O92          C95   1.279       .  A
Cu93        Cu94   2.379       .  S
C95         C722   1.466       .  S
C96         C112   1.457       .  S
C97         C148   1.463       .  S
C98         C172   1.464       .  S
N99         N100   1.323       .  A
N99         C103   1.349       .  A
N99        Cu107   2.099       .  S
N100        C101   1.339       .  A
N100       Cu106   2.057       .  S
C101        C102   1.380       .  A
C101        H104   1.080       .  S
C102        C103   1.391       .  A
C103        H105   1.082       .  S
Cu106       N109   2.054       .  S
Cu107       N117   2.098       .  S
Cu108       N110   2.062       .  S
Cu108       N116   2.062       .  S
N109        N110   1.317       .  A
N109        C113   1.342       .  A
N110        C111   1.343       .  A
C111        C112   1.385       .  A
C111        H114   1.082       .  S
C112        C113   1.384       .  A
C113        H115   1.083       .  S
N116        N117   1.324       .  A
N116        C120   1.339       .  A
N117        C118   1.353       .  A
C118        C119   1.388       .  A
C118        H121   1.082       .  S
C119        C120   1.377       .  A
C120        H122   1.082       .  S
C123        C124   1.550   1_655  S
C123        C129   1.536       .  S
C123        C127   1.541       .  S
C123        C633   1.516       .  S
C124        H131   1.085       .  S
C124        C125   1.381       .  D
C125        C126   1.553       .  S
C125        C729   1.497       .  S
C126        C130   1.529   1_455  S
C126        C128   1.534   1_455  S
C126        H132   1.104       .  S
C127        H133   1.086       .  S
C127        C128   1.356       .  D
C128        C138   1.475       .  S
C129        H134   1.088       .  S
C129        C130   1.357       .  D
C130        C753   1.475       .  S
N135        N136   1.323       .  A
N135        C139   1.348       .  A
N135       Cu143   2.093       .  S
N136        C137   1.337       .  A
N136       Cu142   2.047       .  S
C137        C138   1.376       .  A
C137        H140   1.081       .  S
C138        C139   1.390       .  A
C139        H141   1.082       .  S
Cu142       N145   2.043       .  S
Cu143       N153   2.091       .  S
Cu144       N146   2.079       .  S
Cu144       N152   2.079       .  S
N145        N146   1.316       .  A
N145        C149   1.343       .  A
N146        C147   1.345       .  A
C147        C148   1.390       .  A
C147        H150   1.082       .  S
C148        C149   1.382       .  A
C149        H151   1.082       .  S
N152        N153   1.321       .  A
N152        C156   1.335       .  A
N153        C154   1.354       .  A
C154        C155   1.394       .  A
C154        H157   1.082       .  S
C155        C156   1.390       .  A
C156        H158   1.082       .  S
N159        N160   1.325       .  A
N159        C163   1.351       .  A
N159       Cu167   2.096       .  S
N160        C161   1.337       .  A
N160       Cu166   2.046       .  S
C161        C162   1.369       .  A
C161        H164   1.082       .  S
C162        C163   1.385       .  A
C163        H165   1.082       .  S
Cu166       N169   2.045       .  S
Cu167       N177   2.094       .  S
Cu168       N170   2.076       .  S
Cu168       N176   2.076       .  S
N169        N170   1.316       .  A
N169        C173   1.345       .  A
N170        C171   1.344       .  A
C171        C172   1.389       .  A
C171        H174   1.082       .  S
C172        C173   1.383       .  A
C173        H175   1.082       .  S
N176        N177   1.323       .  A
N176        C180   1.336       .  A
N177        C178   1.354       .  A
C178        C179   1.391       .  A
C178        H181   1.082       .  S
C179        C180   1.386       .  A
C180        H182   1.079       .  S
O183       Cu191   1.994       .  S
O183        C193   1.275       .  A
O184       Cu191   1.980       .  S
O184        C194   1.275       .  A
O185       Cu191   1.990       .  S
O185        C195   1.275       .  A
O186       Cu191   1.992       .  S
O186        C196   1.275       .  A
O187       Cu192   2.032       .  S
O187        C196   1.279       .  A
O188       Cu192   2.025       .  S
O188        C195   1.278       .  A
O189       Cu192   2.022       .  S
O189        C194   1.278       .  A
O190       Cu192   2.032       .  S
O190        C193   1.279       .  A
Cu191      Cu192   2.379       .  S
C193        C210   1.466       .  S
C194        C794   1.458       .  S
C195        C650   1.462       .  S
C196        C698   1.466       .  S
N197        N198   1.322       .  A
N197        C201   1.362   1_556  A
N197       Cu205   2.141   1_556  S
N198        C199   1.332       .  A
N198       Cu204   2.053       .  S
C199        C200   1.383       .  A
C199        H202   1.081       .  S
C200        C201   1.406   1_556  A
C201        H203   1.082       .  S
Cu204       N207   2.056       .  S
Cu205       N215   2.142   1_554  S
Cu206       N208   2.061       .  S
Cu206       N214   2.061       .  S
N207        N208   1.313       .  A
N207        C211   1.346       .  A
N208        C209   1.344       .  A
C209        C210   1.388       .  A
C209        H212   1.082       .  S
C210        C211   1.386       .  A
C211        H213   1.082       .  S
N214        N215   1.325       .  A
N214        C218   1.336       .  A
N215        C216   1.361   1_556  A
C216        C217   1.400   1_554  A
C216        H219   1.082       .  S
C217        C218   1.379       .  A
C218        H220   1.080       .  S
C221        C222   1.551       .  S
C221        C227   1.534       .  S
C221        C225   1.551       .  S
C221        C681   1.528       .  S
C222        H229   1.085       .  S
C222        C223   1.384   1_554  D
C223        C224   1.543       .  S
C223        C657   1.493       .  S
C224        C228   1.523       .  S
C224        C226   1.533       .  S
C224        H230   1.101       .  S
C225        H231   1.085       .  S
C225        C226   1.361   1_554  D
C226        C784   1.487       .  S
C227        H232   1.087       .  S
C227        C228   1.357   1_554  D
C228        C310   1.465       .  S
O233       Cu241   2.034       .  S
O233        C243   1.280       .  A
O234       Cu241   2.024   1_566  S
O234        C244   1.278       .  A
O235       Cu241   2.026   1_565  S
O235        C245   1.278       .  A
O236       Cu241   2.021   1_556  S
O236        C246   1.278       .  A
O237       Cu242   1.990   1_556  S
O237        C246   1.275       .  A
O238       Cu242   1.990   1_565  S
O238        C245   1.275       .  A
O239       Cu242   1.982   1_566  S
O239        C244   1.275       .  A
O240       Cu242   1.993       .  S
O240        C243   1.275       .  A
Cu241      Cu242   2.379       .  S
C243        C674   1.466       .  S
C244        C260   1.459       .  S
C245        C296   1.463       .  S
C246        C320   1.461       .  S
N247        N248   1.324       .  A
N247        C251   1.352       .  A
N247       Cu255   2.110       .  S
N248        C249   1.341       .  A
N248       Cu254   2.066       .  S
C249        C250   1.381       .  A
C249        H252   1.080       .  S
C250        C251   1.393       .  A
C251        H253   1.082       .  S
Cu254       N257   2.064       .  S
Cu255       N265   2.109       .  S
Cu256       N258   2.053       .  S
Cu256       N264   2.055       .  S
N257        N258   1.317       .  A
N257        C261   1.343       .  A
N258        C259   1.342       .  A
C259        C260   1.384       .  A
C259        H262   1.083       .  S
C260        C261   1.386       .  A
C261        H263   1.083       .  S
N264        N265   1.322       .  A
N264        C268   1.338       .  A
N265        C266   1.353       .  A
C266        C267   1.395       .  A
C266        H269   1.082       .  S
C267        C268   1.380       .  A
C268        H270   1.080       .  S
C271        C272   1.552       .  S
C271        C277   1.536       .  S
C271        C275   1.551       .  S
C271        C664   1.528       .  S
C272        H279   1.085       .  S
C272        C273   1.361       .  D
C273        C274   1.533   1_545  S
C273        C760   1.486   1_545  S
C274        C278   1.524       .  S
C274        C276   1.543   1_565  S
C274        H280   1.102       .  S
C275        H281   1.085       .  S
C275        C276   1.382       .  D
C276        C609   1.494   1_545  S
C277        H282   1.087       .  S
C277        C278   1.359   1_545  D
C278        C286   1.468       .  S
N283        N284   1.325       .  A
N283        C287   1.351       .  A
N283       Cu291   2.098       .  S
N284        C285   1.339       .  A
N284       Cu290   2.052       .  S
C285        C286   1.372       .  A
C285        H288   1.082       .  S
C286        C287   1.385       .  A
C287        H289   1.082       .  S
Cu290       N293   2.049       .  S
Cu291       N301   2.097       .  S
Cu292       N294   2.077       .  S
Cu292       N300   2.079       .  S
N293        N294   1.317       .  A
N293        C297   1.344       .  A
N294        C295   1.344       .  A
C295        C296   1.388       .  A
C295        H298   1.083       .  S
C296        C297   1.383       .  A
C297        H299   1.082       .  S
N300        N301   1.322       .  A
N300        C304   1.338       .  A
N301        C302   1.355       .  A
C302        C303   1.392       .  A
C302        H305   1.082       .  S
C303        C304   1.387       .  A
C304        H306   1.080       .  S
N307        N308   1.326       .  A
N307        C311   1.351       .  A
N307       Cu315   2.101       .  S
N308        C309   1.337       .  A
N308       Cu314   2.049       .  S
C309        C310   1.370       .  A
C309        H312   1.082       .  S
C310        C311   1.385       .  A
C311        H313   1.082       .  S
Cu314       N317   2.047       .  S
Cu315       N325   2.099       .  S
Cu316       N318   2.067       .  S
Cu316       N324   2.068       .  S
N317        N318   1.316       .  A
N317        C321   1.344       .  A
N318        C319   1.343       .  A
C319        C320   1.386       .  A
C319        H322   1.083       .  S
C320        C321   1.383       .  A
C321        H323   1.082       .  S
N324        N325   1.322       .  A
N324        C328   1.335       .  A
N325        C326   1.355       .  A
C326        C327   1.394       .  A
C326        H329   1.082       .  S
C327        C328   1.384       .  A
C328        H330   1.079       .  S
O331       Cu339   1.988       .  S
O331        C341   1.276       .  A
O332       Cu339   2.001       .  S
O332        C342   1.276       .  A
O333       Cu339   1.991       .  S
O333        C343   1.275       .  A
O334       Cu339   1.991       .  S
O334        C344   1.275       .  A
O335       Cu340   2.030       .  S
O335        C344   1.279       .  A
O336       Cu340   2.027       .  S
O336        C343   1.279       .  A
O337       Cu340   2.028       .  S
O337        C342   1.279       .  A
O338       Cu340   2.016       .  S
O338        C341   1.277       .  A
Cu339      Cu340   2.379       .  S
C341        C746   1.458       .  S
C342        C358   1.467       .  S
C343        C554   1.464       .  S
C344        C626   1.465       .  S
N345        N346   1.322       .  A
N345        C349   1.360   1_655  A
N345       Cu353   2.128       .  S
N346        C347   1.333       .  A
N346       Cu352   2.058       .  S
C347        C348   1.385       .  A
C347        H350   1.081       .  S
C348        C349   1.403   1_655  A
C349        H351   1.082       .  S
Cu352       N355   2.060       .  S
Cu353       N363   2.129       .  S
Cu354       N356   2.059       .  S
Cu354       N362   2.059       .  S
N355        N356   1.314       .  A
N355        C359   1.345       .  A
N356        C357   1.345       .  A
C357        C358   1.386       .  A
C357        H360   1.082       .  S
C358        C359   1.386       .  A
C359        H361   1.082       .  S
N362        N363   1.323       .  A
N362        C366   1.333       .  A
N363        C364   1.359   1_655  A
C364        C365   1.401   1_455  A
C364        H367   1.082       .  S
C365        C366   1.384       .  A
C366        H368   1.082       .  S
O369       Cu377   2.031       .  S
O369        C379   1.279       .  A
O370       Cu377   2.018       .  S
O370        C380   1.277       .  A
O371       Cu377   2.029       .  S
O371        C381   1.279       .  A
O372       Cu377   2.028       .  S
O372        C382   1.279       .  A
O373       Cu378   1.988       .  S
O373        C382   1.275       .  A
O374       Cu378   1.990       .  S
O374        C381   1.275       .  A
O375       Cu378   1.984       .  S
O375        C380   1.275       .  A
O376       Cu378   1.995       .  S
O376        C379   1.275       .  A
Cu377      Cu378   2.379       .  S
C379        C396   1.466       .  S
C380        C770   1.457       .  S
C381        C602   1.464       .  S
C382        C530   1.463       .  S
N383        N384   1.322   1_545  A
N383        C387   1.362       .  A
N383       Cu391   2.138       .  S
N384        C385   1.332       .  A
N384       Cu390   2.057       .  S
C385        C386   1.384   1_565  A
C385        H388   1.081       .  S
C386        C387   1.405       .  A
C387        H389   1.082       .  S
Cu390       N393   2.058       .  S
Cu391       N401   2.139       .  S
Cu392       N394   2.058       .  S
Cu392       N400   2.057       .  S
N393        N394   1.313       .  A
N393        C397   1.344       .  A
N394        C395   1.345       .  A
C395        C396   1.387       .  A
C395        H398   1.082       .  S
C396        C397   1.386       .  A
C397        H399   1.082       .  S
N400        N401   1.323   1_565  A
N400        C404   1.333       .  A
N401        C402   1.360       .  A
C402        C403   1.404       .  A
C402        H405   1.082       .  S
C403        C404   1.383   1_545  A
C404        H406   1.081       .  S
C407        C408   1.551       .  S
C407        C413   1.536       .  S
C407        C411   1.552       .  S
C407        C568   1.525       .  S
C408        H415   1.085       .  S
C408        C409   1.382       .  D
C409        C410   1.541   1_545  S
C409        C537   1.492   1_545  S
C410        C414   1.522       .  S
C410        C412   1.532   1_565  S
C410        H416   1.101       .  S
C411        H417   1.085       .  S
C411        C412   1.361       .  D
C412        C777   1.486   1_545  S
C413        H418   1.087       .  S
C413        C414   1.357   1_545  D
C414        C496   1.463       .  S
O419       Cu427   1.998       .  S
O419        C429   1.276       .  A
O420       Cu427   1.984   1_665  S
O420        C430   1.276       .  A
O421       Cu427   1.989   1_565  S
O421        C431   1.275       .  A
O422       Cu427   1.989   1_655  S
O422        C432   1.275       .  A
O423       Cu428   2.029   1_655  S
O423        C432   1.279       .  A
O424       Cu428   2.031   1_565  S
O424        C431   1.279       .  A
O425       Cu428   2.012   1_665  S
O425        C430   1.276       .  A
O426       Cu428   2.026       .  S
O426        C429   1.278       .  A
Cu427      Cu428   2.379       .  S
C429        C578   1.465       .  S
C430        C446   1.455       .  S
C431        C506   1.465       .  S
C432        C482   1.464       .  S
N433        N434   1.322       .  A
N433        C437   1.350       .  A
N433       Cu441   2.096       .  S
N434        C435   1.339       .  A
N434       Cu440   2.055       .  S
C435        C436   1.380       .  A
C435        H438   1.080       .  S
C436        C437   1.392       .  A
C437        H439   1.082       .  S
Cu440       N443   2.053       .  S
Cu441       N451   2.097       .  S
Cu442       N444   2.057       .  S
Cu442       N450   2.061       .  S
N443        N444   1.317       .  A
N443        C447   1.341       .  A
N444        C445   1.342       .  A
C445        C446   1.384       .  A
C445        H448   1.083       .  S
C446        C447   1.383       .  A
C447        H449   1.083       .  S
N450        N451   1.323       .  A
N450        C454   1.341       .  A
N451        C452   1.349       .  A
C452        C453   1.391       .  A
C452        H455   1.081       .  S
C453        C454   1.381       .  A
C454        H456   1.081       .  S
C457        C458   1.550       .  S
C457        C463   1.536       .  S
C457        C461   1.551       .  S
C457        C585   1.525       .  S
C458        H465   1.085       .  S
C458        C459   1.359   1_455  D
C459        C460   1.533       .  S
C459        C736   1.485       .  S
C460        C464   1.523       .  S
C460        C462   1.544   1_655  S
C460        H466   1.101       .  S
C461        H467   1.085       .  S
C461        C462   1.383       .  D
C462        C544   1.492   1_455  S
C463        H468   1.087       .  S
C463        C464   1.358   1_455  D
C464        C472   1.466       .  S
N469        N470   1.325       .  A
N469        C473   1.352       .  A
N469       Cu477   2.103       .  S
N470        C471   1.337       .  A
N470       Cu476   2.047       .  S
C471        C472   1.370       .  A
C471        H474   1.082       .  S
C472        C473   1.386       .  A
C473        H475   1.082       .  S
Cu476       N479   2.046       .  S
Cu477       N487   2.101       .  S
Cu478       N480   2.075       .  S
Cu478       N486   2.076       .  S
N479        N480   1.316       .  A
N479        C483   1.345       .  A
N480        C481   1.344       .  A
C481        C482   1.389       .  A
C481        H484   1.082       .  S
C482        C483   1.383       .  A
C483        H485   1.082       .  S
N486        N487   1.322       .  A
N486        C490   1.336       .  A
N487        C488   1.356       .  A
C488        C489   1.394       .  A
C488        H491   1.082       .  S
C489        C490   1.386       .  A
C490        H492   1.079       .  S
N493        N494   1.326       .  A
N493        C497   1.350       .  A
N493       Cu501   2.097       .  S
N494        C495   1.338       .  A
N494       Cu500   2.048       .  S
C495        C496   1.370       .  A
C495        H498   1.082       .  S
C496        C497   1.384       .  A
C497        H499   1.082       .  S
Cu500       N503   2.046       .  S
Cu501       N511   2.095       .  S
Cu502       N504   2.076       .  S
Cu502       N510   2.077       .  S
N503        N504   1.316       .  A
N503        C507   1.345       .  A
N504        C505   1.344       .  A
C505        C506   1.389       .  A
C505        H508   1.083       .  S
C506        C507   1.383       .  A
C507        H509   1.082       .  S
N510        N511   1.322       .  A
N510        C514   1.337       .  A
N511        C512   1.355       .  A
C512        C513   1.392       .  A
C512        H515   1.082       .  S
C513        C514   1.386       .  A
C514        H516   1.080       .  S
N517        N518   1.325       .  A
N517        C521   1.351   1_565  A
N517       Cu525   2.100       .  S
N518        C519   1.338       .  A
N518       Cu524   2.049       .  S
C519        C520   1.371       .  A
C519        H522   1.082       .  S
C520        C521   1.385   1_565  A
C521        H523   1.082       .  S
Cu524       N527   2.048       .  S
Cu525       N535   2.097       .  S
Cu526       N528   2.075       .  S
Cu526       N534   2.077       .  S
N527        N528   1.317       .  A
N527        C531   1.345       .  A
N528        C529   1.343       .  A
C529        C530   1.388       .  A
C529        H532   1.083       .  S
C530        C531   1.383       .  A
C531        H533   1.082       .  S
N534        N535   1.322       .  A
N534        C538   1.337       .  A
N535        C536   1.355   1_565  A
C536        C537   1.392   1_545  A
C536        H539   1.082       .  S
C537        C538   1.387       .  A
C538        H540   1.079       .  S
N541        N542   1.322       .  A
N541        C545   1.356   1_655  A
N541       Cu549   2.101       .  S
N542        C543   1.335       .  A
N542       Cu548   2.074       .  S
C543        C544   1.386       .  A
C543        H546   1.079       .  S
C544        C545   1.394   1_655  A
C545        H547   1.082       .  S
Cu548       N551   2.073       .  S
Cu549       N559   2.102       .  S
Cu550       N552   2.046       .  S
Cu550       N558   2.046       .  S
N551        N552   1.316       .  A
N551        C555   1.344       .  A
N552        C553   1.345       .  A
C553        C554   1.383       .  A
C553        H556   1.082       .  S
C554        C555   1.388       .  A
C555        H557   1.082       .  S
N558        N559   1.325       .  A
N558        C562   1.337       .  A
N559        C560   1.352   1_655  A
C560        C561   1.386   1_455  A
C560        H563   1.082       .  S
C561        C562   1.370       .  A
C562        H564   1.082       .  S
N565        N566   1.322       .  A
N565        C569   1.360       .  A
N565       Cu573   2.137       .  S
N566        C567   1.333       .  A
N566       Cu572   2.057       .  S
C567        C568   1.384       .  A
C567        H570   1.081       .  S
C568        C569   1.404       .  A
C569        H571   1.082       .  S
Cu572       N575   2.058       .  S
Cu573       N583   2.136       .  S
Cu574       N576   2.058       .  S
Cu574       N582   2.059       .  S
N575        N576   1.313       .  A
N575        C579   1.345       .  A
N576        C577   1.344       .  A
C577        C578   1.386       .  A
C577        H580   1.082       .  S
C578        C579   1.386       .  A
C579        H581   1.082       .  S
N582        N583   1.322       .  A
N582        C586   1.332       .  A
N583        C584   1.361       .  A
C584        C585   1.404       .  A
C584        H587   1.082       .  S
C585        C586   1.385       .  A
C586        H588   1.082       .  S
N589        N590   1.326       .  A
N589        C593   1.352   1_565  A
N589       Cu597   2.103       .  S
N590        C591   1.338       .  A
N590       Cu596   2.050       .  S
C591        C592   1.371   1_565  A
C591        H594   1.082       .  S
C592        C593   1.386       .  A
C593        H595   1.082       .  S
Cu596       N599   2.049       .  S
Cu597       N607   2.101       .  S
Cu598       N600   2.077       .  S
Cu598       N606   2.079       .  S
N599        N600   1.317       .  A
N599        C603   1.345       .  A
N600        C601   1.344       .  A
C601        C602   1.388       .  A
C601        H604   1.082       .  S
C602        C603   1.383       .  A
C603        H605   1.082       .  S
N606        N607   1.322       .  A
N606        C610   1.338       .  A
N607        C608   1.356   1_565  A
C608        C609   1.393   1_545  A
C608        H611   1.082       .  S
C609        C610   1.387       .  A
C610        H612   1.079       .  S
N613        N614   1.326       .  A
N613        C617   1.350   1_655  A
N613       Cu621   2.095       .  S
N614        C615   1.337       .  A
N614       Cu620   2.049       .  S
C615        C616   1.370       .  A
C615        H618   1.082       .  S
C616        C617   1.384   1_655  A
C617        H619   1.082       .  S
Cu620       N623   2.046       .  S
Cu621       N631   2.092       .  S
Cu622       N624   2.078       .  S
Cu622       N630   2.078       .  S
N623        N624   1.316       .  A
N623        C627   1.345       .  A
N624        C625   1.345       .  A
C625        C626   1.389       .  A
C625        H628   1.082       .  S
C626        C627   1.383       .  A
C627        H629   1.082       .  S
N630        N631   1.320       .  A
N630        C634   1.334       .  A
N631        C632   1.355   1_655  A
C632        C633   1.395   1_455  A
C632        H635   1.082       .  S
C633        C634   1.391       .  A
C634        H636   1.082       .  S
N637        N638   1.323       .  A
N637        C641   1.348       .  A
N637       Cu645   2.097       .  S
N638        C639   1.339       .  A
N638       Cu644   2.051       .  S
C639        C640   1.377       .  A
C639        H642   1.081       .  S
C640        C641   1.390       .  A
C641        H643   1.082   1_556  S
Cu644       N647   2.048       .  S
Cu645       N655   2.096       .  S
Cu646       N648   2.076       .  S
Cu646       N654   2.078       .  S
N647        N648   1.317       .  A
N647        C651   1.343       .  A
N648        C649   1.345       .  A
C649        C650   1.388       .  A
C649        H652   1.082       .  S
C650        C651   1.382       .  A
C651        H653   1.082       .  S
N654        N655   1.322       .  A
N654        C658   1.336       .  A
N655        C656   1.355       .  A
C656        C657   1.393       .  A
C656        H659   1.082   1_556  S
C657        C658   1.387       .  A
C658        H660   1.079       .  S
N661        N662   1.322       .  A
N661        C665   1.363       .  A
N661       Cu669   2.145       .  S
N662        C663   1.333       .  A
N662       Cu668   2.056       .  S
C663        C664   1.384       .  A
C663        H666   1.082       .  S
C664        C665   1.406       .  A
C665        H667   1.082       .  S
Cu668       N671   2.058       .  S
Cu669       N679   2.145       .  S
Cu670       N672   2.063       .  S
Cu670       N678   2.064       .  S
N671        N672   1.313       .  A
N671        C675   1.344       .  A
N672        C673   1.345       .  A
C673        C674   1.388       .  A
C673        H676   1.082       .  S
C674        C675   1.386       .  A
C675        H677   1.082       .  S
N678        N679   1.323       .  A
N678        C682   1.333       .  A
N679        C680   1.362       .  A
C680        C681   1.405       .  A
C680        H683   1.082       .  S
C681        C682   1.385       .  A
C682        H684   1.082       .  S
N685        N686   1.325       .  A
N685        C689   1.351   1_556  A
N685       Cu693   2.096       .  S
N686        C687   1.338       .  A
N686       Cu692   2.049       .  S
C687        C688   1.371       .  A
C687        H690   1.082       .  S
C688        C689   1.385   1_556  A
C689        H691   1.082       .  S
Cu692       N695   2.048       .  S
Cu693       N703   2.094       .  S
Cu694       N696   2.078       .  S
Cu694       N702   2.080       .  S
N695        N696   1.317       .  A
N695        C699   1.345       .  A
N696        C697   1.344       .  A
C697        C698   1.388       .  A
C697        H700   1.082       .  S
C698        C699   1.383       .  A
C699        H701   1.082       .  S
N702        N703   1.322       .  A
N702        C706   1.338       .  A
N703        C704   1.354       .  A
C704        C705   1.391       .  A
C704        H707   1.082   1_556  S
C705        C706   1.387       .  A
C706        H708   1.080       .  S
N709        N710   1.322       .  A
N709        C713   1.361       .  A
N709       Cu717   2.141       .  S
N710        C711   1.334       .  A
N710       Cu716   2.058       .  S
C711        C712   1.384       .  A
C711        H714   1.081       .  S
C712        C713   1.405       .  A
C713        H715   1.082       .  S
Cu716       N719   2.060       .  S
Cu717       N727   2.141       .  S
Cu718       N720   2.061       .  S
Cu718       N726   2.063       .  S
N719        N720   1.314       .  A
N719        C723   1.345       .  A
N720        C721   1.344       .  A
C721        C722   1.386       .  A
C721        H724   1.082       .  S
C722        C723   1.386       .  A
C723        H725   1.082       .  S
N726        N727   1.325       .  A
N726        C730   1.336       .  A
N727        C728   1.361       .  A
C728        C729   1.400       .  A
C728        H731   1.082       .  S
C729        C730   1.380       .  A
C730        H732   1.080       .  S
N733        N734   1.323       .  A
N733        C737   1.350       .  A
N733       Cu741   2.100       .  S
N734        C735   1.340       .  A
N734       Cu740   2.060       .  S
C735        C736   1.381       .  A
C735        H738   1.080       .  S
C736        C737   1.392       .  A
C737        H739   1.082   1_655  S
Cu740       N743   2.057       .  S
Cu741       N751   2.100       .  S
Cu742       N744   2.060       .  S
Cu742       N750   2.062       .  S
N743        N744   1.317       .  A
N743        C747   1.342       .  A
N744        C745   1.343       .  A
C745        C746   1.384       .  A
C745        H748   1.082       .  S
C746        C747   1.383       .  A
C747        H749   1.082       .  S
N750        N751   1.324       .  A
N750        C754   1.340       .  A
N751        C752   1.352       .  A
C752        C753   1.387       .  A
C752        H755   1.082   1_655  S
C753        C754   1.377       .  A
C754        H756   1.082       .  S
N757        N758   1.322       .  A
N757        C761   1.351   1_565  A
N757       Cu765   2.098       .  S
N758        C759   1.340       .  A
N758       Cu764   2.061       .  S
C759        C760   1.382       .  A
C759        H762   1.080       .  S
C760        C761   1.392   1_565  A
C761        H763   1.082       .  S
Cu764       N767   2.058       .  S
Cu765       N775   2.098       .  S
Cu766       N768   2.061       .  S
Cu766       N774   2.064       .  S
N767        N768   1.318       .  A
N767        C771   1.342       .  A
N768        C769   1.343       .  A
C769        C770   1.385       .  A
C769        H772   1.083       .  S
C770        C771   1.383       .  A
C771        H773   1.083       .  S
N774        N775   1.323       .  A
N774        C778   1.340       .  A
N775        C776   1.350   1_565  A
C776        C777   1.391   1_545  A
C776        H779   1.082       .  S
C777        C778   1.382       .  A
C778        H780   1.080       .  S
N781        N782   1.324       .  A
N781        C785   1.350       .  A
N781       Cu789   2.104       .  S
N782        C783   1.342       .  A
N782       Cu788   2.068       .  S
C783        C784   1.382       .  A
C783        H786   1.080       .  S
C784        C785   1.391       .  A
C785        H787   1.082   1_556  S
Cu788       N791   2.065       .  S
Cu789       N799   2.103       .  S
Cu790       N792   2.056       .  S
Cu790       N798   2.058       .  S
N791        N792   1.317       .  A
N791        C795   1.343       .  A
N792        C793   1.342       .  A
C793        C794   1.384       .  A
C793        H796   1.082       .  S
C794        C795   1.386       .  A
C795        H797   1.083       .  S
N798        N799   1.322       .  A
N798        C802   1.339       .  A
N799        C800   1.352       .  A
C800        C801   1.394       .  A
C800        H803   1.082   1_556  S
C801        C802   1.381       .  A
C802        H804   1.080       .  S
