geometry optimzed in LAMMPS
_audit_creation_date              2020-11-30 
_audit_creation_method            'lammps2cif' 
_symmetry_space_group_name_H-M    'P1' 
_symmetry_Int_Tables_number       1 
_symmetry_cell_setting            triclinic 
loop_ 
_symmetry_equiv_pos_as_xyz 
  x,y,z 
_cell_length_a                    27.49026120697232 
_cell_length_b                    27.794535184350217 
_cell_length_c                    28.051752862857423 
_cell_angle_alpha                 88.98086958962672 
_cell_angle_beta                  90.91312278986281 
_cell_angle_gamma                 89.82219300751188 
loop_ 
_atom_site_label 
_atom_site_type_symbol 
_atom_site_fract_x 
_atom_site_fract_y 
_atom_site_fract_z 
_atom_site_charge 
Fe1        Fe  0.27907446  0.80041521  0.48999326     1.65780
Fe2        Fe  0.18474509  0.71751627  0.49957093     1.73250
Fe3        Fe  0.16251764  0.83494649  0.49708374     1.54410
O4          O  0.20662832  0.87390315  0.55286292    -0.82360
O5          O  0.14655166  0.71815550  0.43690865    -0.80660
O6          O  0.28411220  0.85078498  0.54546782    -0.84860
O7          O  0.27891473  0.85760135  0.44174659    -0.79720
O8          O  0.12202727  0.79402423  0.55321476    -0.81490
O9          O  0.24166179  0.69323043  0.46780924    -0.84240
C10         C  0.24778350  0.88999398  0.43213025     0.96530
C11         C  0.25298873  0.87780681  0.56501526     1.03970
O12         O  0.20864814  0.78555004  0.49339587    -1.13220
O13         O  0.22059988  0.71376288  0.56363685    -0.75650
O14         O  0.28974627  0.74626591  0.53821738    -0.79140
O15         O  0.20243646  0.88399158  0.44569978    -0.79830
C16         C  0.26646021  0.71696496  0.56460349     0.95430
O17         O  0.28267810  0.75223170  0.43414952    -0.77790
O18         O  0.12036767  0.71837788  0.53172328    -0.82980
C19         C  0.11546871  0.74951473  0.42368205     0.98050
C20         C  0.10643447  0.74978654  0.55879382     1.03970
O21         O  0.11749181  0.79392650  0.44092867    -0.78620
C22         C  0.27321572  0.70779099  0.43984428     1.02270
Fe23       Fe  0.73526775  0.16181781  0.51215029     1.65780
Fe24       Fe  0.84296072  0.23015270  0.49007779     1.73250
Fe25       Fe  0.85776979  0.13694116  0.50835189     1.54420
O26         O  0.81421808  0.09419867  0.56428363    -0.82360
O27         O  0.89012318  0.26347324  0.45126885    -0.80660
O28         O  0.73993904  0.12870795  0.57640997    -0.84860
O29         O  0.73950650  0.09512759  0.48399819    -0.79720
O30         O  0.89957148  0.17852088  0.56533728    -0.81490
O31         O  0.81231291  0.20300158  0.42993141    -0.84240
C32         C  0.76603632  0.08765231  0.44918462     0.96530
C33         C  0.77120259  0.09598492  0.58593817     1.03970
O34         O  0.80768123  0.17700911  0.51692706    -1.13220
O35         O  0.79320479  0.20512746  0.53514217    -0.75650
O36         O  0.72145541  0.22684492  0.54486023    -0.79140
O37         O  0.81203963  0.10140811  0.45105710    -0.79830
C38         C  0.76458255  0.23824239  0.54920801     0.95430
O39         O  0.73353381  0.18890715  0.44214767    -0.77790
O40         O  0.87823233  0.25441027  0.54990424    -0.82980
C41         C  0.91308412  0.22886616  0.43401021     0.98050
C42         C  0.90252754  0.22496687  0.57531391     1.03970
O43         O  0.90320079  0.18349548  0.45008431    -0.78620
C44         C  0.77006323  0.19317563  0.41446719     1.02270
Fe45       Fe  0.82561016  0.74083417  0.49775117     1.65780
Fe46       Fe  0.73549517  0.82729137  0.48708492     1.73250
Fe47       Fe  0.85545505  0.84929792  0.49688159     1.54410
O48         O  0.89911984  0.80076398  0.54913643    -0.82360
O49         O  0.74481187  0.86193815  0.42521589    -0.80660
O50         O  0.85951382  0.73172492  0.56251488    -0.84860
O51         O  0.89250758  0.73389051  0.46761433    -0.79720
O52         O  0.81435029  0.88617497  0.55584932    -0.81490
O53         O  0.72606533  0.76645820  0.44661056    -0.84240
C54         C  0.90710584  0.76107287  0.43508714     0.96530
C55         C  0.89660717  0.75762560  0.57019671     1.03970
O56         O  0.80516305  0.80714398  0.50047653    -1.13220
O57         O  0.71713554  0.79541812  0.54711115    -0.75650
O58         O  0.75868473  0.73054330  0.52703611    -0.79140
O59         O  0.89394055  0.80713824  0.43719095    -0.79830
C60         C  0.72432116  0.75143272  0.54841446     0.95430
O61         O  0.80315419  0.76369093  0.43377718    -0.77790
O62         O  0.73747668  0.88882613  0.52788772    -0.82980
C63         C  0.77089353  0.89820171  0.42139808     0.98050
C64         C  0.76808783  0.89892603  0.56051975     1.03970
O65         O  0.81312364  0.89921154  0.44468975    -0.78620
C66         C  0.76274218  0.74684944  0.42801897     1.02270
Fe67       Fe  0.50511636  0.26190652  0.17976744     1.65780
Fe68       Fe  0.47608911  0.17448151  0.26226789     1.73250
Fe69       Fe  0.49496341  0.14798110  0.15283362     1.54420
O70         O  0.44489462  0.19131777  0.10694987    -0.82360
O71         O  0.54315288  0.14378622  0.27937893    -0.80660
O72         O  0.46550554  0.26796173  0.11803572    -0.84860
O73         O  0.56681349  0.25980180  0.14185819    -0.79720
O74         O  0.42959725  0.11052837  0.18490454    -0.81490
O75         O  0.49070009  0.23975739  0.28679198    -0.84240
C76         C  0.57304026  0.23118073  0.10832124     0.96530
C77         C  0.44036001  0.23732094  0.09669153     1.03970
O78         O  0.49724770  0.19424345  0.19782320    -1.13220
O79         O  0.40945125  0.19944610  0.23944862    -0.75650
O80         O  0.44054529  0.26811850  0.21068565    -0.79140
O81         O  0.55321681  0.18773520  0.11041573    -0.79830
C82         C  0.40481794  0.24315085  0.22571181     0.95430
O83         O  0.54731958  0.26366707  0.23876749    -0.77790
O84         O  0.45570809  0.10536701  0.25750994    -0.82980
C85         C  0.55746801  0.10881334  0.25369272     0.98050
C86         C  0.42359888  0.09483466  0.22846092     1.03970
O87         O  0.54388499  0.10686332  0.20753554    -0.78620
C88         C  0.53084771  0.25862946  0.27982920     1.02270
Fe89       Fe  0.73229118  0.48317065  0.17060513     1.65780
Fe90       Fe  0.81367953  0.47327914  0.26674656     1.73250
Fe91       Fe  0.85053192  0.48252138  0.15858152     1.54420
O92         O  0.80606263  0.42967302  0.11372011    -0.82360
O93         O  0.86872450  0.52229762  0.28026518    -0.80660
O94         O  0.73143922  0.41667553  0.14562322    -0.84860
O95         O  0.74592347  0.50707379  0.10265681    -0.79720
O96         O  0.89410015  0.42390542  0.19771720    -0.81490
O97         O  0.77047425  0.53362379  0.26289873    -0.84240
C98         C  0.76913455  0.54545829  0.10192110     0.96530
C99         C  0.76199862  0.40929906  0.11307263     1.03970
O100        O  0.80005220  0.47525037  0.19891619    -1.13220
O101        O  0.75986939  0.42463130  0.25811732    -0.75650
O102        O  0.69770993  0.46559693  0.23309092    -0.79140
O103        O  0.81178448  0.54426053  0.12268942    -0.79830
C104        C  0.71919172  0.44288413  0.26604841     0.95430
O105        O  0.74039653  0.55032048  0.19022114    -0.77790
O106        O  0.86403401  0.41739430  0.27122977    -0.82980
C107        C  0.89191023  0.54756527  0.25072373     0.98050
C108        C  0.89620683  0.40557929  0.24152596     1.03970
O109        O  0.88828718  0.53757169  0.20497001    -0.78620
C110        C  0.75307045  0.56301882  0.23100011     1.02270
Fe111      Fe  0.50134603  0.73323348  0.19501976     1.65780
Fe112      Fe  0.50139061  0.82992608  0.27375045     1.73250
Fe113      Fe  0.50463334  0.84561983  0.15548630     1.54410
O114        O  0.56246591  0.80218630  0.11670863    -0.82360
O115        O  0.43413118  0.85966151  0.26859233    -0.80660
O116        O  0.55775367  0.72676881  0.14421607    -0.84860
O117        O  0.45040848  0.72694709  0.14001386    -0.79720
O118        O  0.56469378  0.88509510  0.19499031    -0.81490
O119        O  0.47550564  0.76941234  0.30482809    -0.84240
C120        C  0.43769270  0.75633944  0.10718004     0.96530
C121        C  0.57681232  0.75675609  0.11508500     1.03970
O122        O  0.50040826  0.80261376  0.20679014    -1.13220
O123        O  0.56952583  0.80354250  0.28093009    -0.75650
O124        O  0.55326639  0.73292243  0.24697564    -0.79140
O125        O  0.45083135  0.80214036  0.11041795    -0.79830
C126        C  0.57900826  0.75990470  0.27366527     0.95430
O127        O  0.44555316  0.73371990  0.24264263    -0.77790
O128        O  0.52988151  0.89674540  0.26301966    -0.82980
C129        C  0.42371790  0.89176883  0.23752759     0.98050
C130        C  0.56634346  0.90307877  0.23783201     1.03970
O131        O  0.44567260  0.89103338  0.19504247    -0.78620
C132        C  0.45652727  0.73318694  0.28638889     1.02270
Fe133      Fe  0.27517332  0.49979923  0.17298086     1.65780
Fe134      Fe  0.19291327  0.50257505  0.26586035     1.73250
Fe135      Fe  0.15764672  0.49399059  0.15295038     1.54410
O136        O  0.19122330  0.55921520  0.11414751    -0.82360
O137        O  0.13251350  0.45665126  0.26909827    -0.80660
O138        O  0.26579112  0.53184501  0.10680526    -0.84860
O139        O  0.28078548  0.43463477  0.13924068    -0.79720
O140        O  0.10631434  0.53841066  0.20093239    -0.81490
O141        O  0.23232951  0.44265330  0.27158132    -0.84240
C142        C  0.25136913  0.42512727  0.10524125     0.96530
C143        C  0.23555437  0.56467995  0.09721225     1.03970
O144        O  0.20763951  0.49563750  0.19720223    -1.13220
O145        O  0.25337565  0.54877940  0.27212101    -0.75650
O146        O  0.26596385  0.56659475  0.19728484    -0.79140
O147        O  0.20649687  0.44436668  0.10615549    -0.79830
C148        C  0.27735614  0.57058329  0.23975152     0.95430
O149        O  0.29943717  0.46896116  0.23790066    -0.77790
O150        O  0.14752630  0.56094809  0.26538546    -0.82980
C151        C  0.11329635  0.42814076  0.23937503     0.98050
C152        C  0.10715031  0.55887779  0.24357272     1.03970
O153        O  0.12383875  0.43258162  0.19373049    -0.78620
C154        C  0.27737052  0.44667047  0.27097334     1.02270
Fe155      Fe  0.26732506  0.50263332  0.81774479     1.65780
Fe156      Fe  0.17539418  0.50366145  0.73133123     1.73250
Fe157      Fe  0.15175373  0.50051609  0.84752439     1.54410
O158        O  0.19707303  0.44592961  0.89021438    -0.82360
O159        O  0.14176587  0.56792613  0.73476576    -0.80660
O160        O  0.27171735  0.44272818  0.85977935    -0.84860
O161        O  0.27065075  0.54550409  0.87671736    -0.79720
O162        O  0.11117262  0.44123192  0.80953810    -0.81490
O163        O  0.24000327  0.53695282  0.71133602    -0.84240
C164        C  0.23852262  0.56961656  0.89698596     0.96530
C165        C  0.24175557  0.42825065  0.89019341     1.03970
O166        O  0.19759215  0.50191135  0.79985806    -1.13220
O167        O  0.20438457  0.43867611  0.72656999    -0.75650
O168        O  0.27443227  0.45928623  0.76075487    -0.79140
O169        O  0.19212491  0.56035422  0.88734551    -0.79830
C170        C  0.24952292  0.43678190  0.73003946     0.95430
O171        O  0.26655953  0.56384276  0.77962205    -0.77790
O172        O  0.10925729  0.46706031  0.73438256    -0.82980
C173        C  0.10533633  0.57315383  0.76094883     0.98050
C174        C  0.09559029  0.43649998  0.76516911     1.03970
O175        O  0.10435574  0.55237409  0.80368739    -0.78620
C176        C  0.27267343  0.55664710  0.73657032     1.02270
Fe177      Fe  0.50863314  0.71851018  0.82503319     1.65780
Fe178      Fe  0.49799891  0.80028895  0.72940512     1.73250
Fe179      Fe  0.50576072  0.83551654  0.84355700     1.54420
O180        O  0.45080976  0.79497682  0.88686126    -0.82360
O181        O  0.55682393  0.84605071  0.72429266    -0.80660
O182        O  0.44750476  0.71810597  0.86314604    -0.84860
O183        O  0.54865865  0.72129451  0.88670381    -0.79720
O184        O  0.44778979  0.87841102  0.80308322    -0.81490
O185        O  0.54146710  0.74317293  0.71996670    -0.84240
C186        C  0.57455517  0.75409462  0.90294234     0.96530
C187        C  0.43320238  0.75089229  0.88986448     1.03970
O188        O  0.50289513  0.78588910  0.79966150    -1.13220
O189        O  0.43775117  0.75765406  0.72672369    -0.75650
O190        O  0.47023244  0.69802304  0.76880492    -0.79140
O191        O  0.56631434  0.79852127  0.88756561    -0.79830
C192        C  0.44496189  0.71336938  0.73410752     0.95430
O193        O  0.57119345  0.71585455  0.78937866    -0.77790
O194        O  0.45358178  0.85880149  0.72685869    -0.82980
C195        C  0.57345522  0.87569437  0.75407939     0.98050
C196        C  0.43592989  0.88537092  0.75777258     1.03970
O197        O  0.55930995  0.87462459  0.79867895    -0.78620
C198        C  0.56820057  0.71502280  0.74470668     1.02270
Fe199      Fe  0.73088480  0.50676888  0.82717143     1.65780
Fe200      Fe  0.82807878  0.50537246  0.75146760     1.73250
Fe201      Fe  0.84852225  0.49070867  0.85996853     1.54410
O202        O  0.81112117  0.54444486  0.90819403    -0.82360
O203        O  0.84788043  0.43407447  0.74052324    -0.80660
O204        O  0.73378623  0.54993490  0.88403652    -0.84860
O205        O  0.72351996  0.44825243  0.87258492    -0.79720
O206        O  0.89268751  0.54963802  0.82296064    -0.81490
O207        O  0.76016337  0.50383797  0.72768574    -0.84240
C208        C  0.75538533  0.42653901  0.89828686     0.96530
C209        C  0.76632752  0.56087891  0.91336659     1.03970
O210        O  0.80075010  0.49386687  0.81410160    -1.13220
O211        O  0.81690132  0.57327220  0.77461884    -0.75650
O212        O  0.73751340  0.57205470  0.78785231    -0.79140
O213        O  0.80213388  0.43646595  0.89543820    -0.79830
C214        C  0.77739796  0.59529523  0.78066826     0.95430
O215        O  0.71472695  0.46086686  0.77336093    -0.77790
O216        O  0.90142925  0.51425708  0.75619794    -0.82980
C217        C  0.88159058  0.41753206  0.76844947     0.98050
C218        C  0.91045771  0.55025519  0.77960832     1.03970
O219        O  0.88538889  0.43487912  0.81242574    -0.78620
C220        C  0.73139063  0.46992248  0.73313943     1.02270
Fe221      Fe  0.51380367  0.17887428  0.71448517     1.65780
Fe222      Fe  0.52164621  0.27291705  0.80093541     1.73250
Fe223      Fe  0.50867530  0.15488919  0.83320860     1.54410
O224        O  0.45152074  0.11363845  0.79132638    -0.82360
O225        O  0.56467185  0.26817458  0.86048073    -0.80660
O226        O  0.45191900  0.13700256  0.71435452    -0.84860
O227        O  0.55398969  0.11810146  0.72025594    -0.79720
O228        O  0.45671868  0.20274424  0.87341287    -0.81490
O229        O  0.58567652  0.27347119  0.76095867    -0.84240
C230        C  0.57190628  0.09409394  0.75417618     0.96530
C231        C  0.43703089  0.10827233  0.74651708     1.03970
O232        O  0.51294994  0.20224383  0.78323713    -1.13220
O233        O  0.47934949  0.29048511  0.74435689    -0.75650
O234        O  0.47548492  0.23658247  0.69136063    -0.79140
O235        O  0.56185602  0.10525437  0.79831398    -0.79830
C236        C  0.49254588  0.27579665  0.70465290     0.95430
O237        O  0.57786179  0.21317594  0.70971888    -0.77790
O238        O  0.46124621  0.27922891  0.84678639    -0.82980
C239        C  0.58035529  0.23419271  0.88633379     0.98050
C240        C  0.44468947  0.24877012  0.87706682     1.03970
O241        O  0.56688046  0.18982124  0.87785160    -0.78620
C242        C  0.60205843  0.24714601  0.72786647     1.02270
Fe243      Fe  0.27981496  0.18841637  0.50264133     1.65780
Fe244      Fe  0.18975268  0.26966307  0.53044996     1.73250
Fe245      Fe  0.16441276  0.15630882  0.50930353     1.54420
O246        O  0.20059816  0.12033044  0.44630157    -0.82360
O247        O  0.12034341  0.26318305  0.55451945    -0.80660
O248        O  0.27818317  0.14349602  0.44394094    -0.84860
O249        O  0.28855741  0.12908623  0.54473487    -0.79720
O250        O  0.12293676  0.20955804  0.46342298    -0.81490
O251        O  0.21840185  0.24766827  0.59658626    -0.84240
C252        C  0.25842331  0.09886504  0.55994369     0.96530
C253        C  0.24478821  0.11627568  0.42861312     1.03970
O254        O  0.21079014  0.20357372  0.51133139    -1.13220
O255        O  0.25401480  0.29790337  0.51179941    -0.75650
O256        O  0.27395780  0.24540847  0.45889762    -0.79140
O257        O  0.21120247  0.10515082  0.55287683    -0.79830
C258        C  0.28304257  0.28258943  0.48165542     0.95430
O259        O  0.28797487  0.22831115  0.56338882    -0.77790
O260        O  0.15697743  0.28398721  0.46460150    -0.82980
C261        C  0.10732777  0.23091089  0.58264582     0.98050
C262        C  0.12427718  0.25523882  0.44899865     1.03970
O263        O  0.12464900  0.18722736  0.57479459    -0.78620
C264        C  0.25988973  0.22688358  0.59923274     1.02270
C265        C  0.45114667  0.34694729  0.58595426     0.02450
C266        C  0.41993461  0.38642047  0.58426125    -0.13700
C267        C  0.37112014  0.37930845  0.59297460    -0.00050
C268        C  0.35175912  0.33287130  0.59463623    -0.12230
C269        C  0.38272934  0.29450680  0.60580081     0.02440
C270        C  0.43172477  0.30022709  0.59589854    -0.11650
H271        H  0.43443591  0.42262256  0.58429034     0.08030
H272        H  0.31318975  0.32898350  0.60150307     0.05560
H273        H  0.45482646  0.26967152  0.60288020     0.05410
C274        C  0.44779880  0.34604616  0.34513791     0.02450
C275        C  0.43640526  0.39563152  0.34329679    -0.13700
C276        C  0.41423717  0.41240183  0.38324665    -0.00050
C277        C  0.44525069  0.40467967  0.42219336    -0.12380
C278        C  0.45484980  0.35568376  0.43217885     0.02440
C279        C  0.46243071  0.32741438  0.39085200    -0.11650
H280        H  0.42200421  0.41255040  0.31170962     0.08030
H281        H  0.44542982  0.43094508  0.45015847     0.05560
H282        H  0.47161759  0.29022422  0.39478847     0.05410
C283        C  0.64800451  0.33866132  0.57007511     0.02450
C284        C  0.68467058  0.33662487  0.53755312    -0.13700
C285        C  0.71012203  0.37875906  0.52526074    -0.00050
C286        C  0.68291903  0.42120860  0.52351017    -0.12230
C287        C  0.64821376  0.42518889  0.55927247     0.02440
C288        C  0.62389511  0.38273301  0.57334144    -0.11650
H289        H  0.69754002  0.30260485  0.52809072     0.08030
H290        H  0.70024366  0.45368372  0.51031922     0.05560
H291        H  0.59795973  0.38443478  0.60135459     0.05410
C292        C  0.72336813  0.56852486  0.65966994     0.02450
C293        C  0.67800169  0.55619410  0.67726814    -0.13700
C294        C  0.63753425  0.56151377  0.64683543    -0.00050
C295        C  0.64527023  0.56192412  0.59714133    -0.12230
C296        C  0.69245192  0.57293332  0.58139757     0.02440
C297        C  0.73065845  0.55855389  0.61205872    -0.11650
H298        H  0.67332626  0.55899978  0.71538238     0.08030
H299        H  0.61428045  0.56950298  0.57389498     0.05560
H300        H  0.76709772  0.55932301  0.59886312     0.05410
C301        C  0.48065901  0.57716554  0.59579664     0.02450
C302        C  0.45423829  0.59256751  0.55487272    -0.13700
C303        C  0.40586088  0.57697184  0.54889726    -0.00050
C304        C  0.39630334  0.53068125  0.56822740    -0.12230
C305        C  0.41996197  0.51923896  0.61138173     0.02440
C306        C  0.46906440  0.53065601  0.61239049    -0.11650
H307        H  0.46455326  0.62513469  0.53764001     0.08030
H308        H  0.36171363  0.51357923  0.56257668     0.05560
H309        H  0.48913967  0.51605664  0.64211748     0.05410
C310        C  0.41309428  0.51657976  0.35692025     0.02450
C311        C  0.38453817  0.52235694  0.39709472    -0.13700
C312        C  0.40127142  0.55099944  0.43418894    -0.00050
C313        C  0.45196419  0.55836389  0.43685076    -0.12230
C314        C  0.47811808  0.55613499  0.39408116     0.02440
C315        C  0.46339966  0.51786565  0.36522913    -0.11650
H316        H  0.34614995  0.52371125  0.38954658     0.08030
H317        H  0.46569618  0.57954108  0.46521118     0.05560
H318        H  0.48696937  0.50733072  0.33671417     0.05410
C319        C  0.65178491  0.54981233  0.36090677     0.02450
C320        C  0.67103922  0.54970095  0.40707305    -0.13700
C321        C  0.65929730  0.58900454  0.43398512    -0.00050
C322        C  0.61224466  0.60778733  0.42803238    -0.12230
C323        C  0.59096246  0.60571477  0.38189922     0.02440
C324        C  0.60264679  0.56407455  0.35729449    -0.11650
H325        H  0.70654432  0.53553493  0.41306600     0.08030
H326        H  0.60515753  0.63817490  0.44966590     0.05560
H327        H  0.58198330  0.55645650  0.32560951     0.05410
C328        C  0.64930095  0.31177440  0.43143806     0.02450
C329        C  0.68824392  0.28443764  0.41646583    -0.13700
C330        C  0.72187726  0.30688098  0.38607707    -0.00050
C331        C  0.73026020  0.35521977  0.39239132    -0.12230
C332        C  0.69785005  0.38275284  0.41983490     0.02440
C333        C  0.65757757  0.35989063  0.44032102    -0.11650
H334        H  0.68042274  0.24705156  0.41202442     0.08030
H335        H  0.75661129  0.37202828  0.36965281     0.05560
H336        H  0.62746982  0.38120403  0.45300786     0.05410
Fe337      Fe  0.77491573  0.98125072  0.69500559     1.65780
Fe338      Fe  0.67995494  0.98257544  0.77610999     1.73250
Fe339      Fe  0.66084202  0.98910711  0.65704201     1.54420
O340        O  0.70752112  0.04362427  0.62094680    -0.82360
O341        O  0.64245594  0.92162664  0.76925414    -0.80660
O342        O  0.78290917  0.04222795  0.65327601    -0.84860
O343        O  0.77908162  0.94189834  0.63357738    -0.79720
O344        O  0.62019009  0.04639655  0.69536045    -0.81490
O345        O  0.73798584  0.94322086  0.79878815    -0.84240
C346        C  0.74784643  0.92718264  0.60413079     0.96530
C347        C  0.75302810  0.05819384  0.62191637     1.03970
O348        O  0.70483173  0.98527712  0.70828448    -1.13220
O349        O  0.71476757  0.04449677  0.78802681    -0.75650
O350        O  0.78355957  0.02089403  0.75542166    -0.79140
O351        O  0.70145350  0.93625972  0.61151173    -0.79830
C352        C  0.76021060  0.04261682  0.78736079     0.95430
O353        O  0.76696047  0.91886205  0.73161384    -0.77790
O354        O  0.61781946  0.02270649  0.77102109    -0.82980
C355        C  0.61207504  0.91177648  0.73707887     0.98050
C356        C  0.60529346  0.05233477  0.73907785     1.03970
O357        O  0.61407731  0.93259675  0.69425852    -0.78620
C358        C  0.77154983  0.92454350  0.77552785     1.02270
C359        C  0.90026020  0.01425745  0.93557821     0.02450
C360        C  0.89587997  0.03066400  0.98255417    -0.13700
C361        C  0.91645909  0.07621361  0.99172039    -0.00050
C362        C  0.96183201  0.08439367  0.97045563    -0.12230
C363        C  0.96656699  0.06757132  0.92393798     0.02440
C364        C  0.94710815  0.02117839  0.91806734    -0.11650
H365        H  0.86412964  0.02126196  0.00248860     0.08030
H366        H  0.98204533  0.11617394  0.97883477     0.05560
H367        H  0.95651122  0.99986370  0.88840158     0.05410
Fe368      Fe  0.00157772  0.21920684  0.70007475     1.65780
Fe369      Fe  0.99800053  0.31110630  0.78447685     1.73250
Fe370      Fe  0.99567315  0.33530551  0.66612554     1.54420
O371        O  0.05189839  0.29202784  0.62398369    -0.82360
O372        O  0.93388875  0.34916290  0.78073920    -0.80660
O373        O  0.06296910  0.21894994  0.65739273    -0.84860
O374        O  0.95951176  0.21554618  0.63950889    -0.79720
O375        O  0.05171910  0.38273418  0.70357489    -0.81490
O376        O  0.96116685  0.25056917  0.80207824    -0.84240
C377        C  0.93553561  0.24604921  0.61546433     0.96530
C378        C  0.07199857  0.24829851  0.62353956     1.03970
O379        O  0.99913591  0.28916097  0.71619637    -1.13220
O380        O  0.06170802  0.27690374  0.79785345    -0.75650
O381        O  0.04296805  0.21017904  0.75938102    -0.79140
O382        O  0.94039221  0.29212642  0.62462796    -0.79830
C383        C  0.06437097  0.23227312  0.79254097     0.95430
O384        O  0.93955051  0.21099013  0.73752731    -0.77790
O385        O  0.03751789  0.37401064  0.78101735    -0.82980
C386        C  0.91907356  0.37928800  0.74954358     0.98050
C387        C  0.05977818  0.39556734  0.74819853     1.03970
O388        O  0.93742029  0.37822738  0.70601228    -0.78620
C389        C  0.94094981  0.21537210  0.78202421     1.02270
Fe390      Fe  0.24256067  0.99804056  0.65836560     1.65780
Fe391      Fe  0.32047230  0.99831283  0.75702893     1.73250
Fe392      Fe  0.35960007  0.99200107  0.64608706     1.54420
O393        O  0.31605124  0.93532444  0.60306618    -0.82360
O394        O  0.37189651  0.05216879  0.76022315    -0.80660
O395        O  0.24076658  0.92919422  0.63282546    -0.84860
O396        O  0.25508599  0.01906316  0.59090255    -0.79720
O397        O  0.39706262  0.93531063  0.69143285    -0.81490
O398        O  0.26986024  0.05193457  0.75427400    -0.84240
C399        C  0.28098436  0.05496131  0.58596679     0.96530
C400        C  0.27180265  0.91550918  0.60265531     1.03970
O401        O  0.30868383  0.99243238  0.68790562    -1.13220
O402        O  0.27106221  0.94476190  0.76206963    -0.75650
O403        O  0.21146191  0.97736960  0.71893506    -0.79140
O404        O  0.32457304  0.05243060  0.60454310    -0.79830
C405        C  0.22676471  0.94823700  0.74998578     0.95430
O406        O  0.24723739  0.06781203  0.67883960    -0.77790
O407        O  0.37412119  0.94625374  0.76674074    -0.82980
C408        C  0.40158228  0.06753045  0.72984994     0.98050
C409        C  0.40053798  0.92467328  0.73738811     1.03970
O410        O  0.40130000  0.04892173  0.68690686    -0.78620
C411        C  0.24863080  0.07827926  0.72239086     1.02270
C412        C  0.08280530  0.05647690  0.88153903     0.02450
C413        C  0.10152425  0.02262092  0.85069479    -0.13700
C414        C  0.15187093  0.02057951  0.84872064    -0.00050
C415        C  0.17623616  0.02171534  0.89321304    -0.12230
C416        C  0.15438424  0.04827713  0.93014671     0.02440
C417        C  0.10312587  0.05337065  0.92756709    -0.11650
H418        H  0.08239974  0.01843637  0.81819688     0.08030
H419        H  0.21536754  0.01906643  0.89186469     0.05560
H420        H  0.08505554  0.07247771  0.95553463     0.05410
Fe421      Fe  0.01892200  0.76867541  0.67671167     1.65780
Fe422      Fe  0.97535269  0.66886529  0.74181139     1.73250
Fe423      Fe  0.00050983  0.64777979  0.65291477     1.54420
O424        O  0.94048603  0.69017459  0.61655860    -0.82360
O425        O  0.02999308  0.61862133  0.76398266    -0.80660
O426        O  0.96910083  0.76619059  0.61875271    -0.84860
O427        O  0.07100720  0.76403350  0.63053731    -0.79720
O428        O  0.95208079  0.59914364  0.70905730    -0.81490
O429        O  0.03434264  0.70870078  0.71677098    -0.84240
C430        C  0.07385146  0.73291359  0.59914170     0.96530
C431        C  0.93781185  0.73607562  0.60338885     1.03970
O432        O  0.01119997  0.69788377  0.69152308    -1.13220
O433        O  0.91698179  0.71255717  0.71455624    -0.75650
O434        O  0.96586888  0.77158115  0.72376575    -0.79140
O435        O  0.05113740  0.69046778  0.60259040    -0.79830
C436        C  0.92533612  0.75694530  0.70876002     0.95430
O437        O  0.07402521  0.77254117  0.73078420    -0.77790
O438        O  0.92968582  0.63208517  0.77842000    -0.82980
C439        C  0.06321923  0.60239183  0.73776346     0.98050
C440        C  0.93191223  0.59539440  0.75343136     1.03970
O441        O  0.06062521  0.61134626  0.69179111    -0.78620
C442        C  0.06796882  0.72944210  0.74252481     1.02270
C443        C  0.11863742  0.73784452  0.88284482     0.02450
C444        C  0.13528235  0.77591375  0.85459854    -0.13700
C445        C  0.11321199  0.82065269  0.85520862    -0.00050
C446        C  0.07689259  0.83035267  0.88800000    -0.12230
C447        C  0.07081171  0.79663119  0.92539213     0.02440
C448        C  0.07992182  0.74863717  0.91291141    -0.11650
H449        H  0.16333442  0.77073152  0.82882384     0.08030
H450        H  0.06525032  0.86731522  0.89217659     0.05560
H451        H  0.06405914  0.71969045  0.93266775     0.05410
Fe452      Fe  0.23772207  0.69346177  0.99729758     1.65780
Fe453      Fe  0.33610074  0.77419772  0.99680516     1.73250
Fe454      Fe  0.34820668  0.65318621  0.00167162     1.54420
O455        O  0.30172465  0.60996697  0.05262582    -0.82360
O456        O  0.36177392  0.76709923  0.93135529    -0.80660
O457        O  0.22700552  0.64095227  0.05118427    -0.84860
O458        O  0.22836688  0.63938139  0.94746623    -0.79720
O459        O  0.38814548  0.69149608  0.06225389    -0.81490
O460        O  0.27326669  0.80814131  0.97169669    -0.84240
C461        C  0.25864175  0.60924015  0.93196035     0.96530
C462        C  0.25580139  0.60776260  0.06547128     1.03970
O463        O  0.30709511  0.70579225  0.99799035    -1.13220
O464        O  0.31429198  0.78282977  0.06257138    -0.75650
O465        O  0.24427577  0.74482566  0.04768020    -0.79140
O466        O  0.30506827  0.61285966  0.94499821    -0.79830
C467        C  0.27067920  0.77433335  0.07079309     0.95430
O468        O  0.24354656  0.74248999  0.94374032    -0.77790
O469        O  0.40382643  0.76016240  0.02637704    -0.82980
C470        C  0.39423678  0.73596842  0.92485115     0.98050
C471        C  0.40801216  0.73461312  0.06364001     1.03970
O472        O  0.39411899  0.69395973  0.94801530    -0.78620
C473        C  0.23714446  0.78478837  0.95741491     1.02270
Fe474      Fe  0.00270923  0.75222469  0.30875436     1.65780
Fe475      Fe  0.99338409  0.65161890  0.23687112     1.73250
Fe476      Fe  0.00219146  0.64127026  0.35185037     1.54410
O477        O  0.05881072  0.68658592  0.38940960    -0.82360
O478        O  0.92570920  0.62619448  0.24140152    -0.80660
O479        O  0.06153156  0.75933511  0.35499448    -0.84860
O480        O  0.95709086  0.76433343  0.36504952    -0.79720
O481        O  0.06242780  0.60165353  0.31208311    -0.81490
O482        O  0.96966898  0.71558755  0.20596389    -0.84240
C483        C  0.93901613  0.73605978  0.39560482     0.96530
C484        C  0.07613467  0.73077136  0.38764906     1.03970
O485        O  0.99543038  0.68241830  0.30098721    -1.13220
O486        O  0.06171417  0.66874506  0.23752092    -0.75650
O487        O  0.05217616  0.74593024  0.25416846    -0.79140
O488        O  0.94789240  0.68871426  0.39291641    -0.79830
C489        C  0.07605858  0.71045657  0.23688716     0.95430
O490        O  0.94178301  0.75177867  0.26806181    -0.77790
O491        O  0.02117762  0.58289621  0.24853295    -0.82980
C492        C  0.92208838  0.59099452  0.27030029     0.98050
C493        C  0.06141557  0.58074659  0.27022234     1.03970
O494        O  0.94567178  0.59246651  0.31248556    -0.78620
C495        C  0.94818040  0.75072136  0.22437428     1.02270
C496        C  0.09023024  0.91570713  0.15655697     0.02450
C497        C  0.10660192  0.92054177  0.10972439    -0.13700
C498        C  0.10784097  0.87912047  0.08205536    -0.00050
C499        C  0.06735201  0.84870671  0.08775506    -0.12230
C500        C  0.05249440  0.84125801  0.13473925     0.02440
C501        C  0.05428244  0.88123285  0.16417712    -0.11650
H502        H  0.13565515  0.94502647  0.10604425     0.08030
H503        H  0.06403879  0.81834895  0.06480997     0.05560
H504        H  0.04419714  0.87344246  0.20036301     0.05410
Fe505      Fe  0.78192250  0.66414122  0.02838389     1.65780
Fe506      Fe  0.69967724  0.76212409  0.00478640     1.73250
Fe507      Fe  0.66196732  0.64839779  0.01134941     1.54420
O508        O  0.70318410  0.61135586  0.95430869    -0.82360
O509        O  0.64369666  0.76782603  0.05714288    -0.80660
O510        O  0.77641714  0.60199090  0.98824935    -0.84860
O511        O  0.76667081  0.63022052  0.08943361    -0.79720
O512        O  0.61745883  0.69303874  0.95808483    -0.81490
O513        O  0.74889487  0.77309400  0.05751595    -0.84240
C514        C  0.74377093  0.59206250  0.08326527     0.96530
C515        C  0.74768203  0.59357268  0.95388327     1.03970
O516        O  0.71381602  0.69223873  0.01649986    -1.13220
O517        O  0.75112957  0.75525907  0.94920844    -0.75650
O518        O  0.80081313  0.69362064  0.96797644    -0.79140
O519        O  0.70221829  0.59416482  0.05933506    -0.79830
C520        C  0.78676390  0.72685217  0.94031549     0.95430
O521        O  0.80475651  0.72079987  0.06730211    -0.77790
O522        O  0.64710771  0.76652972  0.95144361    -0.82980
C523        C  0.61626400  0.73680404  0.07823525     0.98050
C524        C  0.61499728  0.73687103  0.93975355     1.03970
O525        O  0.62146674  0.69034366  0.06833390    -0.78620
C526        C  0.79174584  0.76058727  0.05028731     1.02270
C527        C  0.88258243  0.94799689  0.08644495     0.02450
C528        C  0.93192959  0.95008537  0.10029566    -0.13700
C529        C  0.95634914  0.90757542  0.09382943    -0.00050
C530        C  0.95483172  0.89406450  0.04624058    -0.12230
C531        C  0.90976171  0.89687447  0.02171408     0.02440
C532        C  0.87413478  0.92705421  0.04218348    -0.11650
H533        H  0.94447517  0.97147894  0.12961474     0.08030
H534        H  0.98656106  0.87790883  0.03166187     0.05560
H535        H  0.83808496  0.92657199  0.02900921     0.05410
Fe536      Fe  0.24283443  0.31056028  0.99611978     1.65780
Fe537      Fe  0.33617027  0.22657420  0.98573057     1.73250
Fe538      Fe  0.35609720  0.34540470  0.99084239     1.54420
O539        O  0.30761160  0.38894681  0.94074128    -0.82360
O540        O  0.37312975  0.22585210  0.04717109    -0.80660
O541        O  0.23266193  0.35695758  0.93900706    -0.84860
O542        O  0.23838655  0.36869235  0.04123499    -0.79720
O543        O  0.39620311  0.31122613  0.92771347    -0.81490
O544        O  0.27736067  0.20194005  0.02278609    -0.84240
C545        C  0.27068882  0.39071457  0.06422989     0.96530
C546        C  0.26183238  0.38952445  0.92565136     1.03970
O547        O  0.31227288  0.29533865  0.98973680    -1.13220
O548        O  0.30161792  0.22474883  0.92252386    -0.75650
O549        O  0.23423883  0.25296308  0.95257919    -0.79140
O550        O  0.31680804  0.38279850  0.05292407    -0.79830
C551        C  0.25674336  0.22260933  0.92772405     0.95430
O552        O  0.25392213  0.26900008  0.05488914    -0.77790
O553        O  0.39901016  0.23409266  0.94787528    -0.82980
C554        C  0.40376269  0.25655621  0.05982795     0.98050
C555        C  0.41117758  0.26684413  0.91915313     1.03970
O556        O  0.40299089  0.30094897  0.04203464    -0.78620
C557        C  0.24741146  0.22547181  0.04680026     1.02270
Fe558      Fe  0.22506543  0.99877262  0.33387770     1.65780
Fe559      Fe  0.29701931  0.99620980  0.23090538     1.73250
Fe560      Fe  0.34281971  0.99965965  0.34172533     1.54420
O561        O  0.30271332  0.05702420  0.38680404    -0.82360
O562        O  0.35419896  0.94645226  0.22566686    -0.80660
O563        O  0.22567144  0.06692733  0.36000155    -0.84860
O564        O  0.24090860  0.97280667  0.40158192    -0.79720
O565        O  0.38063396  0.05282778  0.29483079    -0.81490
O566        O  0.24969067  0.94092431  0.24038921    -0.84240
C567        C  0.26708845  0.93585808  0.40474815     0.96530
C568        C  0.25913628  0.07851346  0.38943317     1.03970
O569        O  0.28914435  0.00369071  0.30083186    -1.13220
O570        O  0.24023327  0.04307751  0.21686796    -0.75650
O571        O  0.18958693  0.01713940  0.27167909    -0.79140
O572        O  0.30881842  0.93868700  0.38342370    -0.79830
C573        C  0.19759852  0.03329613  0.23021497     0.95430
O574        O  0.22638443  0.93062099  0.31595219    -0.77790
O575        O  0.34810788  0.05036586  0.22044534    -0.82980
C576        C  0.38561328  0.93025048  0.25508409     0.98050
C577        C  0.38135918  0.06453111  0.24897681     1.03970
O578        O  0.38371576  0.94441368  0.29953833    -0.78620
C579        C  0.22840697  0.91735576  0.27393742     1.02270
Fe580      Fe  0.03691938  0.22528587  0.34074745     1.65780
Fe581      Fe  0.01943386  0.29670779  0.24045714     1.73250
Fe582      Fe  0.01468658  0.34052945  0.34946143     1.54420
O583        O  0.96476605  0.29112293  0.39276109    -0.82360
O584        O  0.06387181  0.35666529  0.23213004    -0.80660
O585        O  0.96758316  0.21431015  0.36697928    -0.84860
O586        O  0.05100306  0.24520629  0.40775260    -0.79720
O587        O  0.95252327  0.37118798  0.30579564    -0.81490
O588        O  0.08269859  0.25665798  0.24378429    -0.84240
C589        C  0.08390963  0.27422616  0.41510171     0.96530
C590        C  0.95029866  0.24532510  0.39550218     1.03970
O591        O  0.01985571  0.28827431  0.30963364    -1.13220
O592        O  0.97628162  0.23676971  0.24009164    -0.75650
O593        O  0.02602813  0.18885046  0.28104345    -0.79140
O594        O  0.07971278  0.31565454  0.39328670    -0.79830
C595        C  0.99508829  0.19582135  0.24860366     0.95430
O596        O  0.10670989  0.23944904  0.31889696    -0.77790
O597        O  0.95766737  0.34198736  0.23220539    -0.82980
C598        C  0.07843246  0.38869529  0.26037878     0.98050
C599        C  0.93771692  0.37084152  0.26097768     1.03970
O600        O  0.06443049  0.38708493  0.30506911    -0.78620
C601        C  0.11621805  0.25007431  0.27572766     1.02270
C602        C  0.09908274  0.17804327  0.15116713     0.02450
C603        C  0.07448670  0.19736012  0.11193692    -0.13700
C604        C  0.06489552  0.16662458  0.07381789    -0.00050
C605        C  0.05159932  0.11882856  0.08476585    -0.12230
C606        C  0.06504083  0.09968695  0.12981363     0.02440
C607        C  0.08570818  0.13117317  0.16361753    -0.11650
H608        H  0.07534903  0.23514614  0.10500682     0.08030
H609        H  0.04335663  0.09462307  0.05592869     0.05560
H610        H  0.09481342  0.11859753  0.19881775     0.05410
Fe611      Fe  0.68272600  0.22448896  0.00430933     1.65780
Fe612      Fe  0.77540851  0.30933757  0.99855227     1.73250
Fe613      Fe  0.65596928  0.33604263  0.00177680     1.54420
O614        O  0.61452109  0.29255020  0.94617316    -0.82360
O615        O  0.77657825  0.35416272  0.05343200    -0.80660
O616        O  0.64792813  0.21859860  0.93998215    -0.84860
O617        O  0.61585240  0.22232158  0.03501369    -0.79720
O618        O  0.69240371  0.38070372  0.94549502    -0.81490
O619        O  0.78697907  0.25654396  0.04714916    -0.84240
C620        C  0.60418636  0.25092001  0.06641380     0.96530
C621        C  0.61601515  0.24932572  0.92654629     1.03970
O622        O  0.70468987  0.29124105  0.99644897    -1.13220
O623        O  0.78477069  0.26684444  0.94257327    -0.75650
O624        O  0.74602803  0.20631743  0.97595790    -0.79140
O625        O  0.61903205  0.29538496  0.06148544    -0.79830
C626        C  0.78086101  0.22318942  0.95263865     0.95430
O627        O  0.71227540  0.23827821  0.06914128    -0.77790
O628        O  0.77204957  0.36447705  0.95212631    -0.82980
C629        C  0.74400441  0.37810514  0.07239489     0.98050
C630        C  0.73784442  0.38837923  0.93361545     1.03970
O631        O  0.69845660  0.37562810  0.05755355    -0.78620
C632        C  0.75734278  0.23242735  0.07183778     1.02270
Fe633      Fe  0.66537983  0.01471785  0.23872369     1.65780
Fe634      Fe  0.76287265  0.02138253  0.31770394     1.73250
Fe635      Fe  0.65171504  0.00061969  0.35285331     1.54410
O636        O  0.60725691  0.06401733  0.32140380    -0.82360
O637        O  0.77590976  0.96858148  0.37000149    -0.80660
O638        O  0.59517092  0.03183341  0.25217277    -0.84860
O639        O  0.64405211  0.94449917  0.23370998    -0.79720
O640        O  0.69762704  0.04491261  0.40431708    -0.81490
O641        O  0.76916809  0.96711702  0.27371970    -0.84240
C642        C  0.60866884  0.93330758  0.26013549     0.96530
C643        C  0.58767134  0.06682094  0.27818225     1.03970
O644        O  0.69391564  0.00962389  0.30421807    -1.13220
O645        O  0.75499894  0.08005997  0.27121532    -0.75650
O646        O  0.67832055  0.08506555  0.24634019    -0.79140
O647        O  0.60707751  0.95117068  0.30383296    -0.79830
C648        C  0.71802111  0.10478295  0.25595956     0.95430
O649        O  0.73115503  0.99831672  0.21163066    -0.77790
O650        O  0.76319592  0.07158827  0.36715310    -0.82980
C651        C  0.74758963  0.93868537  0.38967574     0.98050
C652        C  0.74056054  0.06627741  0.40499761     1.03970
O653        O  0.70002960  0.94182041  0.38218861    -0.78620
C654        C  0.75798434  0.96625272  0.23079417     1.02270
C655        C  0.90159324  0.05197510  0.15805871     0.02450
C656        C  0.88904964  0.04967986  0.10893559    -0.13700
C657        C  0.83948377  0.05286765  0.09517112    -0.00050
C658        C  0.80720150  0.03881993  0.13023446    -0.12230
C659        C  0.81660111  0.05955530  0.17385496     0.02440
C660        C  0.86342315  0.05295578  0.19108441    -0.11650
H661        H  0.91650389  0.05654414  0.08270394     0.08030
H662        H  0.77005867  0.03157901  0.12030676     0.05560
H663        H  0.86997391  0.05976555  0.22827865     0.05410
C664        C  0.96400604  0.85022740  0.78550126     0.02450
C665        C  0.98476329  0.89059725  0.80576621    -0.13700
C666        C  0.95988302  0.90565131  0.84552455    -0.00050
C667        C  0.95433668  0.86812992  0.88074370    -0.12230
C668        C  0.94564047  0.82048750  0.86520812     0.02440
C669        C  0.95373500  0.81175393  0.81706984    -0.11650
H670        H  0.00124323  0.91711835  0.78295297     0.08030
H671        H  0.94316986  0.87731584  0.91604822     0.05560
H672        H  0.93629496  0.78025947  0.80275994     0.05410
C673        C  0.77164559  0.16998123  0.23683139    -0.09840
C674        C  0.72451340  0.15310028  0.23247200     0.06360
C675        C  0.71301883  0.14683651  0.18434624    -0.03610
C676        C  0.74377785  0.11406317  0.16249884    -0.08060
C677        C  0.79086868  0.10560712  0.18344562     0.05470
C678        C  0.80741050  0.14186428  0.21611435    -0.03080
Br679      Br  0.87062749  0.15388023  0.24087622    -0.02780
H680        H  0.78017563  0.20035516  0.25836510     0.09380
H681        H  0.72760940  0.09214169  0.13539638     0.07400
Br682      Br  0.64785351  0.15327907  0.16177176    -0.03210
C683        C  0.75193589  0.14865184  0.06037758    -0.09840
C684        C  0.77432762  0.18641775  0.08400492     0.06360
C685        C  0.82082862  0.18256901  0.10223818    -0.03610
C686        C  0.84567122  0.14057699  0.09588691    -0.08060
C687        C  0.82305545  0.09979265  0.07560024     0.05470
C688        C  0.77551662  0.10546998  0.05594017    -0.03080
Br689      Br  0.73460164  0.05614045  0.03192034    -0.02780
H690        H  0.71553859  0.15274764  0.04533558     0.09380
H691        H  0.87951617  0.13871368  0.11405498     0.07400
Br692      Br  0.84873501  0.23408335  0.13828966    -0.03210
C693        C  0.17202853  0.27363145  0.21605101    -0.09840
C694        C  0.16670649  0.24703442  0.25852395     0.06360
C695        C  0.18104956  0.19925106  0.25452504    -0.03610
C696        C  0.16599257  0.17570996  0.21324943    -0.08060
C697        C  0.14047827  0.20253291  0.17711847     0.05470
C698        C  0.15253829  0.25286538  0.17453145    -0.03080
Br699      Br  0.13959266  0.29817493  0.12357452    -0.02780
H700        H  0.17547822  0.31239162  0.21759037     0.09380
H701        H  0.16928198  0.13701037  0.21251549     0.07400
Br702      Br  0.20105692  0.16320507  0.30961834    -0.03210
C703        C  0.95972655  0.11747592  0.14799098    -0.09840
C704        C  0.94705111  0.07529782  0.17330920     0.06360
C705        C  0.96232305  0.07038978  0.22127504    -0.03610
C706        C  0.98214138  0.10948093  0.24416324    -0.08060
C707        C  0.98277390  0.15453459  0.22094113     0.05470
C708        C  0.97211740  0.15873724  0.17239415    -0.03080
Br709      Br  0.96990500  0.22037760  0.14010797    -0.02780
H710        H  0.95384574  0.12068904  0.11004886     0.09380
H711        H  0.99201400  0.10578248  0.28159879     0.07400
Br712      Br  0.95409549  0.01207922  0.25772194    -0.03210
C713        C  0.16096032  0.03114044  0.14674570    -0.09840
C714        C  0.15554269  0.03545903  0.19674779     0.06360
C715        C  0.10785978  0.03320155  0.21501388    -0.03610
C716        C  0.06871303  0.03042992  0.18304815    -0.08060
C717        C  0.07504628  0.04741914  0.13662136     0.05470
C718        C  0.11914614  0.03416931  0.11665927    -0.03080
Br719      Br  0.11928535  0.02132334  0.04914705    -0.02780
H720        H  0.19634775  0.02489976  0.13167866     0.09380
H721        H  0.03312269  0.02787342  0.19657339     0.07400
Br722      Br  0.09238523  0.05007901  0.27965503    -0.03210
C723        C  0.16126191  0.23707191  0.02774561    -0.09840
C724        C  0.19878872  0.20766984  0.04660846     0.06360
C725        C  0.19086364  0.15944009  0.05620109    -0.03610
C726        C  0.14469003  0.14195716  0.05027720    -0.08060
C727        C  0.10469570  0.17256903  0.03994886     0.05470
C728        C  0.11428369  0.21938824  0.02289387    -0.03080
Br729      Br  0.06302379  0.26487342  0.00960742    -0.02780
H730        H  0.16805279  0.27431046  0.01806893     0.09380
H731        H  0.13975894  0.10790467  0.06624369     0.07400
Br732      Br  0.23986165  0.11822323  0.08523213    -0.03210
C733        C  0.76476772  0.92622408  0.15716724    -0.09840
C734        C  0.78365965  0.93274967  0.20226503     0.06360
C735        C  0.83343783  0.93027888  0.21033243    -0.03610
C736        C  0.86274996  0.94117385  0.17277103    -0.08060
C737        C  0.84519130  0.94317584  0.12505944     0.05470
C738        C  0.79419206  0.93342531  0.11818900    -0.03080
Br739      Br  0.75461814  0.93889771  0.06275406    -0.02780
H740        H  0.72549928  0.92509765  0.15246635     0.09380
H741        H  0.89892688  0.95024448  0.18309324     0.07400
Br742      Br  0.86275512  0.92450354  0.27298260    -0.03210
C743        C  0.84443529  0.86003691  0.97428230    -0.09840
C744        C  0.89223461  0.85604336  0.99167768     0.06360
C745        C  0.90783060  0.80899679  0.00347231    -0.03610
C746        C  0.87352177  0.77477308  0.01707697    -0.08060
C747        C  0.82410817  0.78780135  0.01820738     0.05470
C748        C  0.80895771  0.82962002  0.99279164    -0.03080
Br749      Br  0.74213189  0.85054547  0.98715723    -0.02780
H750        H  0.83292241  0.89394802  0.95960356     0.09380
H751        H  0.88603492  0.74063839  0.03201448     0.07400
Br752      Br  0.97442000  0.79167824  0.00833841    -0.03210
C753        C  0.86732438  0.71578824  0.90731839    -0.09840
C754        C  0.82096127  0.73678891  0.90208767     0.06360
C755        C  0.81641346  0.77910072  0.87655950    -0.03610
C756        C  0.85762351  0.80735488  0.87117452    -0.08060
C757        C  0.90459380  0.79153902  0.88488106     0.05470
C758        C  0.90886628  0.74341041  0.90182169    -0.03080
Br759      Br  0.96558426  0.71332314  0.92829821    -0.02780
H760        H  0.87138696  0.68029782  0.92360093     0.09380
H761        H  0.85314058  0.84140053  0.85526090     0.07400
Br762      Br  0.75513177  0.79405453  0.84599207    -0.03210
C763        C  0.17465196  0.89863425  0.18276915    -0.09840
C764        C  0.12829658  0.91694006  0.19517142     0.06360
C765        C  0.11577763  0.91357962  0.24413449    -0.03610
C766        C  0.14802955  0.89106458  0.27634581    -0.08060
C767        C  0.19500515  0.87996845  0.26108108     0.05470
C768        C  0.20155483  0.86932520  0.21406188    -0.03080
Br769      Br  0.26534288  0.84578793  0.19842386    -0.02780
H770        H  0.19101427  0.90830303  0.15023586     0.09380
H771        H  0.14052722  0.89208800  0.31412573     0.07400
Br772      Br  0.05595730  0.93602121  0.26937950    -0.03210
C773        C  0.10906664  0.80031211  0.19262607    -0.09840
C774        C  0.07035770  0.79613122  0.15837347     0.06360
C775        C  0.06091330  0.74963327  0.14065110    -0.03610
C776        C  0.09004022  0.71163987  0.15742072    -0.08060
C777        C  0.11254933  0.71814748  0.20199274     0.05470
C778        C  0.13451311  0.76094566  0.21041150    -0.03080
Br779      Br  0.17761997  0.76433654  0.26472563    -0.02780
H780        H  0.11637421  0.83212925  0.21003071     0.09380
H781        H  0.08086656  0.67545509  0.14665759     0.07400
Br782      Br  0.00394349  0.73211971  0.10619750    -0.03210
C783        C  0.95373462  0.87758406  0.17952911    -0.09840
C784        C  0.94396225  0.86979894  0.13097137     0.06360
C785        C  0.91659310  0.82828043  0.12038813    -0.03610
C786        C  0.92127421  0.78836389  0.14990417    -0.08060
C787        C  0.93863851  0.79364010  0.19605453     0.05470
C788        C  0.95052873  0.83972477  0.21260762    -0.03080
Br789      Br  0.96803551  0.85173426  0.27783896    -0.02780
H790        H  0.96817677  0.91168900  0.19115825     0.09380
H791        H  0.90517007  0.75445083  0.13940031     0.07400
Br792      Br  0.84854066  0.83457767  0.11299281    -0.03210
C793        C  0.15994513  0.80643581  0.09755438    -0.09840
C794        C  0.15693906  0.85461555  0.08021344     0.06360
C795        C  0.20214946  0.87868793  0.07260800    -0.03610
C796        C  0.24540850  0.85406592  0.08194890    -0.08060
C797        C  0.24468860  0.80666664  0.09918061     0.05470
C798        C  0.20243868  0.78663959  0.11586661    -0.03080
Br799      Br  0.20555780  0.72007383  0.13853286    -0.02780
H800        H  0.13005914  0.78251997  0.09544217     0.09380
H801        H  0.27948712  0.87004345  0.07100896     0.07400
Br802      Br  0.21206693  0.94483980  0.05495030    -0.03210
C803        C  0.11931244  0.85253773  0.97324896    -0.09840
C804        C  0.09004846  0.81052937  0.97385607     0.06360
C805        C  0.11136357  0.77205348  0.00063297    -0.03610
C806        C  0.15977545  0.76375851  0.99254787    -0.08060
C807        C  0.18868259  0.79939041  0.97179984     0.05470
C808        C  0.16966637  0.84640546  0.96717066    -0.03080
Br809      Br  0.20873870  0.90057464  0.94910626    -0.02780
H810        H  0.10321788  0.88729112  0.96468363     0.09380
H811        H  0.17316929  0.72801169  0.99974256     0.07400
Br812      Br  0.07846261  0.71565035  0.02296563    -0.03210
C813        C  0.14071192  0.69480704  0.78484415    -0.09840
C814        C  0.09035949  0.70411807  0.78248732     0.06360
C815        C  0.06117960  0.68599197  0.81938955    -0.03610
C816        C  0.08418595  0.66523069  0.85943919    -0.08060
C817        C  0.12907239  0.68660963  0.86894242     0.05470
C818        C  0.16082450  0.68209271  0.82992793    -0.03080
Br819      Br  0.22966099  0.68636065  0.83870638    -0.02780
H820        H  0.16392277  0.70311962  0.75499856     0.09380
H821        H  0.06201705  0.65250583  0.88859483     0.07400
Br822      Br  0.99446789  0.70130513  0.82184520    -0.03210
C823        C  0.91665538  0.83300736  0.66492270    -0.09840
C824        C  0.89124707  0.79303184  0.68487347     0.06360
C825        C  0.85935204  0.80951168  0.71855810    -0.03610
C826        C  0.87956218  0.84106796  0.75167607    -0.08060
C827        C  0.92829862  0.85731575  0.74514763     0.05470
C828        C  0.94338765  0.86080635  0.69733808    -0.03080
Br829      Br  0.00600722  0.88379303  0.67875973    -0.02780
H830        H  0.92393978  0.83625424  0.62744583     0.09380
H831        H  0.86116658  0.84565604  0.78405175     0.07400
Br832      Br  0.79896752  0.77785974  0.72882288    -0.03210
C833        C  0.15826670  0.13657068  0.94050098    -0.09840
C834        C  0.18199084  0.09170934  0.94612314     0.06360
C835        C  0.23325321  0.09207477  0.94889476    -0.03610
C836        C  0.25829649  0.13426084  0.93684824    -0.08060
C837        C  0.23268371  0.17655389  0.92324565     0.05470
C838        C  0.18222152  0.17715193  0.92472516    -0.03080
Br839      Br  0.14628090  0.23601623  0.91169114    -0.02780
H840        H  0.12055028  0.14062496  0.94754899     0.09380
H841        H  0.29755566  0.13468427  0.94071450     0.07400
Br842      Br  0.26994013  0.03720051  0.97151767    -0.03210
C843        C  0.20303202  0.08978865  0.82083928    -0.09840
C844        C  0.17302935  0.04982691  0.80862937     0.06360
C845        C  0.15413044  0.04925210  0.76067134    -0.03610
C846        C  0.16795831  0.08603887  0.72879135    -0.08060
C847        C  0.21102854  0.11029690  0.73886135     0.05470
C848        C  0.21835663  0.12279316  0.78616647    -0.03080
Br849      Br  0.26494982  0.17105999  0.80206872    -0.02780
H850        H  0.21455139  0.09627431  0.85671017     0.09380
H851        H  0.15473522  0.08496934  0.69218500     0.07400
Br852      Br  0.10902889  0.00327046  0.73389713    -0.03210
C853        C  0.20249595  0.91343743  0.82379215    -0.09840
C854        C  0.19178096  0.92100239  0.77593602     0.06360
C855        C  0.15145516  0.89811160  0.75420946    -0.03610
C856        C  0.12069984  0.87116405  0.78315290    -0.08060
C857        C  0.13695547  0.85867140  0.82917699     0.05470
C858        C  0.18342709  0.87334606  0.84437305    -0.03080
Br859      Br  0.23543272  0.82837460  0.85672263    -0.02780
H860        H  0.23507596  0.92873704  0.83970103     0.09380
H861        H  0.08801942  0.85530595  0.76837032     0.07400
Br862      Br  0.14157877  0.89572416  0.68630740    -0.03210
C863        C  0.11362316  0.16510456  0.81103587    -0.09840
C864        C  0.08520625  0.20150710  0.82889432     0.06360
C865        C  0.05617997  0.19132380  0.86881712    -0.03610
C866        C  0.05570785  0.14436049  0.88760285    -0.08060
C867        C  0.07388434  0.10635433  0.86031454     0.05470
C868        C  0.09370864  0.11984341  0.81557759    -0.03080
Br869      Br  0.06012812  0.10707577  0.75621017    -0.02780
H870        H  0.13289369  0.17321383  0.77839629     0.09380
H871        H  0.04030158  0.13777057  0.92221134     0.07400
Br872      Br  0.02006847  0.24115189  0.89867599    -0.03210
C873        C  0.83626389  0.10905810  0.96502254    -0.09840
C874        C  0.88098749  0.11749437  0.98850778     0.06360
C875        C  0.89218535  0.16601730  0.99848740    -0.03610
C876        C  0.86161817  0.20251814  0.98080632    -0.08060
C877        C  0.82149294  0.19162694  0.95142665     0.05470
C878        C  0.81006366  0.14443200  0.94191121    -0.03080
Br879      Br  0.74997554  0.12829456  0.90931596    -0.02780
H880        H  0.81930205  0.07511865  0.96668816     0.09380
H881        H  0.86848431  0.23941238  0.99077597     0.07400
Br882      Br  0.94988012  0.18667485  0.02999054    -0.03210
C883        C  0.93796587  0.15017507  0.89461751    -0.09840
C884        C  0.95818849  0.10483020  0.88414591     0.06360
C885        C  0.96668140  0.09627103  0.83556131    -0.03610
C886        C  0.95433164  0.13083852  0.80074613    -0.08060
C887        C  0.93214432  0.17408726  0.81273846     0.05470
C888        C  0.92095684  0.18232336  0.85988173    -0.03080
Br889      Br  0.89143584  0.24239921  0.87772760    -0.02780
H890        H  0.93940541  0.16358984  0.92941461     0.09380
H891        H  0.96221331  0.12415334  0.76379575     0.07400
Br892      Br  0.99146486  0.03717644  0.81362525    -0.03210
C893        C  0.77422755  0.02726802  0.87194591    -0.09840
C894        C  0.78765164  0.05214062  0.83020820     0.06360
C895        C  0.83561011  0.06462534  0.82389193    -0.03610
C896        C  0.86968535  0.04496455  0.85501701    -0.08060
C897        C  0.85886500  0.02401965  0.89952190     0.05470
C898        C  0.80915854  0.01485188  0.90697261    -0.03080
Br899      Br  0.78655578  0.98232018  0.96122963    -0.02780
H900        H  0.73707501  0.01515369  0.87612203     0.09380
H901        H  0.90368864  0.03969761  0.84058277     0.07400
Br902      Br  0.85566433  0.09470308  0.76475884    -0.03210
C903        C  0.85615782  0.94777561  0.76750945    -0.09840
C904        C  0.81959807  0.92955540  0.79597456     0.06360
C905        C  0.82737366  0.92437247  0.84459534    -0.03610
C906        C  0.87443228  0.92844627  0.86311247    -0.08060
C907        C  0.91444689  0.93465650  0.83267491     0.05470
C908        C  0.90308457  0.95225535  0.78496589    -0.03080
Br909      Br  0.94464962  0.97462417  0.73424185    -0.02780
H910        H  0.84849700  0.95664177  0.73036207     0.09380
H911        H  0.87985370  0.92096700  0.90052246     0.07400
Br912      Br  0.77543036  0.90158975  0.88345756    -0.03210
C913        C  0.33011341  0.27068891  0.67375532    -0.09840
C914        C  0.36478289  0.25655902  0.63951907     0.06360
C915        C  0.36559551  0.20715024  0.62854621    -0.03610
C916        C  0.32331401  0.18067597  0.63858275    -0.08060
C917        C  0.28062132  0.20794325  0.64524025     0.05470
C918        C  0.28705662  0.24457967  0.67786453    -0.03080
Br919      Br  0.23260556  0.27261552  0.70895797    -0.02780
H920        H  0.33058025  0.30568578  0.68887904     0.09380
H921        H  0.32072935  0.14406542  0.62693873     0.07400
Br922      Br  0.41491082  0.17788288  0.59128464    -0.03210
C923        C  0.38713396  0.36486804  0.48822487    -0.09840
C924        C  0.42516462  0.33474900  0.47197628     0.06360
C925        C  0.41746837  0.28449810  0.47691729    -0.03610
C926        C  0.37034695  0.26778636  0.48196644    -0.08060
C927        C  0.33164328  0.30028484  0.48328835     0.05470
C928        C  0.33992918  0.34884789  0.48936944    -0.03080
Br929      Br  0.28780677  0.39468834  0.49629069    -0.02780
H930        H  0.39134722  0.40302366  0.49301234     0.09380
H931        H  0.36368037  0.22936228  0.48278886     0.07400
Br932      Br  0.46652686  0.23552364  0.47578971    -0.03210
C933        C  0.65363559  0.23361102  0.66009684    -0.09840
C934        C  0.64647686  0.26016841  0.70164518     0.06360
C935        C  0.66164126  0.30803554  0.70086294    -0.03610
C936        C  0.66670182  0.33116292  0.65669907    -0.08060
C937        C  0.65359689  0.30804020  0.61408472     0.05470
C938        C  0.64906628  0.25737340  0.61608825    -0.03080
Br939      Br  0.62324107  0.21867729  0.56614522    -0.02780
H940        H  0.64743822  0.19508909  0.66107098     0.09380
H941        H  0.67854871  0.36766648  0.65552644     0.07400
Br942      Br  0.67159134  0.34308141  0.75837380    -0.03210
C943        C  0.53930917  0.28614107  0.62953194    -0.09840
C944        C  0.52638786  0.30372548  0.67459165     0.06360
C945        C  0.52667235  0.35368589  0.67961597    -0.03610
C946        C  0.50976744  0.38025104  0.64014388    -0.08060
C947        C  0.50270463  0.35650500  0.59680838     0.05470
C948        C  0.53300197  0.31744732  0.59001114    -0.03080
Br949      Br  0.54663147  0.30271514  0.52587823    -0.02780
H950        H  0.54464141  0.24813340  0.62407888     0.09380
H951        H  0.49218302  0.41431862  0.64623760     0.07400
Br952      Br  0.53584908  0.38351911  0.74021572    -0.03210
C953        C  0.81108574  0.64936776  0.72453087    -0.09840
C954        C  0.77852847  0.64662796  0.76306593     0.06360
C955        C  0.73288718  0.66323529  0.74918527    -0.03610
C956        C  0.71510306  0.64372930  0.70691501    -0.08060
C957        C  0.74582583  0.61197782  0.68128576     0.05470
C958        C  0.79677904  0.61994183  0.68627569    -0.03080
Br959      Br  0.84552419  0.57762374  0.66206682    -0.02780
H960        H  0.84938206  0.65266091  0.73248347     0.09380
H961        H  0.67701548  0.64551787  0.70025481     0.07400
Br962      Br  0.68990208  0.68920766  0.79486113    -0.03210
C963        C  0.65937371  0.45091268  0.68676378    -0.09840
C964        C  0.71014129  0.45165606  0.69058658     0.06360
C965        C  0.73835098  0.45517556  0.64951129    -0.03610
C966        C  0.71585137  0.45858116  0.60600666    -0.08060
C967        C  0.66555617  0.45269927  0.60079718     0.05470
C968        C  0.63748074  0.45439082  0.64184826    -0.03080
Br969      Br  0.57130928  0.47062372  0.63531324    -0.02780
H970        H  0.63732985  0.45237123  0.71821455     0.09380
H971        H  0.73953989  0.46353731  0.57604243     0.07400
Br972      Br  0.80829940  0.45896853  0.64804122    -0.03210
C973        C  0.46133762  0.69568507  0.65176298    -0.09840
C974        C  0.44326813  0.67944705  0.69568910     0.06360
C975        C  0.45001562  0.63095513  0.70938298    -0.03610
C976        C  0.47643378  0.60114120  0.68091336    -0.08060
C977        C  0.48726522  0.61446463  0.63354664     0.05470
C978        C  0.48517346  0.66403574  0.62191509    -0.03080
Br979      Br  0.52373266  0.69149755  0.57229181    -0.02780
H980        H  0.46249125  0.73385341  0.64328615     0.09380
H981        H  0.48317650  0.56568955  0.69529611     0.07400
Br982      Br  0.42875298  0.60460923  0.76993113    -0.03210
C983        C  0.57805907  0.62850598  0.74065250    -0.09840
C984        C  0.58561421  0.67415352  0.72042040     0.06360
C985        C  0.59606875  0.67978526  0.67243394    -0.03610
C986        C  0.59963554  0.63939446  0.64512263    -0.08060
C987        C  0.59981901  0.59307728  0.66587661     0.05470
C988        C  0.58494551  0.58779182  0.71370982    -0.03080
Br989      Br  0.57661344  0.52701981  0.74545857    -0.02780
H990        H  0.56603799  0.62453355  0.77711608     0.09380
H991        H  0.60857525  0.64497641  0.60881844     0.07400
Br992      Br  0.61038303  0.74238926  0.64514099    -0.03210
C993        C  0.31967996  0.39785162  0.70607804    -0.09840
C994        C  0.27612397  0.41846970  0.69188723     0.06360
C995        C  0.26922072  0.43767115  0.64533474    -0.03610
C996        C  0.30668460  0.43392611  0.61323200    -0.08060
C997        C  0.34928443  0.41002680  0.62707293     0.05470
C998        C  0.35697055  0.39586457  0.67510887    -0.03080
Br999      Br  0.41132076  0.36109486  0.69980192    -0.02780
H1000       H  0.32533110  0.38506580  0.74259927     0.09380
H1001       H  0.30133147  0.44661238  0.57698597     0.07400
Br1002     Br  0.21074020  0.46967260  0.62356576    -0.03210
C1003       C  0.35312491  0.51757294  0.72864264    -0.09840
C1004       C  0.32147755  0.55647427  0.71903778     0.06360
C1005       C  0.33481903  0.59164767  0.68718671    -0.03610
C1006       C  0.37050993  0.58048214  0.65498873    -0.08060
C1007       C  0.39199918  0.53415978  0.65413659     0.05470
C1008       C  0.39020275  0.50751844  0.69688951    -0.03080
Br1009     Br  0.44457806  0.47152695  0.72059227    -0.02780
H1010       H  0.35056871  0.49664425  0.76128392     0.09380
H1011       H  0.38495372  0.60928979  0.63435392     0.07400
Br1012     Br  0.31101332  0.65583411  0.69556282    -0.03210
C1013       C  0.36142594  0.54876543  0.23408045    -0.09840
C1014       C  0.32721559  0.58274380  0.24931696     0.06360
C1015       C  0.33645784  0.60794334  0.29006823    -0.03610
C1016       C  0.36844854  0.58779776  0.32284008    -0.08060
C1017       C  0.39173597  0.54298472  0.31471478     0.05470
C1018       C  0.39344108  0.52745375  0.26738591    -0.03080
Br1019     Br  0.43810889  0.48034150  0.24543959    -0.02780
H1020       H  0.35782364  0.53317390  0.19907330     0.09380
H1021       H  0.37375520  0.60643387  0.35525939     0.07400
Br1022     Br  0.29935326  0.66413426  0.30431848    -0.03210
C1023       C  0.32132893  0.38334068  0.31210780    -0.09840
C1024       C  0.30316654  0.42950967  0.31245302     0.06360
C1025       C  0.29785963  0.45161153  0.35691584    -0.03610
C1026       C  0.32795822  0.43531453  0.39501382    -0.08060
C1027       C  0.36059988  0.39837590  0.38670101     0.05470
C1028       C  0.34066963  0.36479996  0.35438653    -0.03080
Br1029     Br  0.29931067  0.31458834  0.37557156    -0.02780
H1030       H  0.30784849  0.35958591  0.28484714     0.09380
H1031       H  0.33031569  0.45397596  0.42804505     0.07400
Br1032     Br  0.24742275  0.49804867  0.36665514    -0.03210
C1033       C  0.62578627  0.69037583  0.28538938    -0.09840
C1034       C  0.61517497  0.73547471  0.30317476     0.06360
C1035       C  0.60617617  0.73849719  0.35174079    -0.03610
C1036       C  0.59151305  0.69727155  0.37621360    -0.08060
C1037       C  0.58628426  0.65234513  0.35284658     0.05470
C1038       C  0.59808442  0.65281034  0.30357815    -0.03080
Br1039     Br  0.56307988  0.61890515  0.25496790    -0.02780
H1040       H  0.63538090  0.68911916  0.24809334     0.09380
H1041       H  0.58624409  0.70152214  0.41344373     0.07400
Br1042     Br  0.60817518  0.79882176  0.38380581    -0.03210
C1043       C  0.47613902  0.60379252  0.31686535    -0.09840
C1044       C  0.48361594  0.60335537  0.36687496     0.06360
C1045       C  0.48700437  0.64883519  0.38859146    -0.03610
C1046       C  0.47561540  0.69026338  0.36200923    -0.08060
C1047       C  0.45976924  0.68828766  0.31410945     0.05470
C1048       C  0.45990925  0.64403069  0.29150381    -0.03080
Br1049     Br  0.44321824  0.63497266  0.22494114    -0.02780
H1050       H  0.48004828  0.57188158  0.29611383     0.09380
H1051       H  0.48060146  0.72459172  0.37904048     0.07400
Br1052     Br  0.51052855  0.65966429  0.45270971    -0.03210
C1053       C  0.74513483  0.46045567  0.34700573    -0.09840
C1054       C  0.70663563  0.45159792  0.31493049     0.06360
C1055       C  0.65886004  0.45009433  0.33197683    -0.03610
C1056       C  0.65289038  0.44533741  0.38116902    -0.08060
C1057       C  0.69419042  0.43458864  0.40970138     0.05470
C1058       C  0.73772057  0.45572217  0.39544167    -0.03080
Br1059     Br  0.79219609  0.46073632  0.43733753    -0.02780
H1060       H  0.78170641  0.46673555  0.33500179     0.09380
H1061       H  0.61661861  0.43981258  0.39466026     0.07400
Br1062     Br  0.60190203  0.45601492  0.29195851    -0.03210
C1063       C  0.74779993  0.61887434  0.29138669    -0.09840
C1064       C  0.73171109  0.60820307  0.24602944     0.06360
C1065       C  0.68199558  0.60134516  0.24074431    -0.03610
C1066       C  0.66187284  0.57028459  0.27492223    -0.08060
C1067       C  0.68408417  0.56492196  0.32058780     0.05470
C1068       C  0.73061216  0.58819381  0.32736894    -0.03080
Br1069     Br  0.78301019  0.56838744  0.36933215    -0.02780
H1070       H  0.78403521  0.63379385  0.29499732     0.09380
H1071       H  0.62968986  0.55055195  0.26551547     0.07400
Br1072     Br  0.65247119  0.60908133  0.17811926    -0.03210
C1073       C  0.35641232  0.25854975  0.28940571    -0.09840
C1074       C  0.36296017  0.27129410  0.24198833     0.06360
C1075       C  0.37172169  0.32036733  0.23474851    -0.03610
C1076       C  0.40815396  0.33956177  0.26439731    -0.08060
C1077       C  0.42055175  0.31654522  0.30904872     0.05470
C1078       C  0.39253539  0.27441187  0.32140138    -0.03080
Br1079     Br  0.40341904  0.22967720  0.37279034    -0.02780
H1080       H  0.33692433  0.22561467  0.29746911     0.09380
H1081       H  0.42720711  0.37091761  0.25132349     0.07400
Br1082     Br  0.35948266  0.34964080  0.17362083    -0.03210
C1083       C  0.60718722  0.33161735  0.35777505    -0.09840
C1084       C  0.60713001  0.30397195  0.40053515     0.06360
C1085       C  0.58115847  0.26060870  0.40219129    -0.03610
C1086       C  0.55399339  0.24768379  0.36272462    -0.08060
C1087       C  0.55738871  0.27445305  0.32015495     0.05470
C1088       C  0.58620962  0.31514114  0.31688937    -0.03080
Br1089     Br  0.60690838  0.34352643  0.25732384    -0.02780
H1090       H  0.63168374  0.36103671  0.35300452     0.09380
H1091       H  0.53359602  0.21436814  0.36391267     0.07400
Br1092     Br  0.59059444  0.21226180  0.45066639    -0.03210
C1093       C  0.77280785  0.66284423  0.45012295    -0.09840
C1094       C  0.76155903  0.69837389  0.41538610     0.06360
C1095       C  0.72902646  0.69043715  0.38018281    -0.03610
C1096       C  0.69465953  0.65680773  0.38951783    -0.08060
C1097       C  0.69708060  0.62597299  0.43015577     0.05470
C1098       C  0.74090882  0.62448872  0.45635994    -0.03080
Br1099     Br  0.76275597  0.56751528  0.49014704    -0.02780
H1100       H  0.80462210  0.66614513  0.47286945     0.09380
H1101       H  0.67128082  0.65002755  0.36070943     0.07400
Br1102     Br  0.72959285  0.73063574  0.32360344    -0.03210
C1103       C  0.72055620  0.69343015  0.60484121    -0.09840
C1104       C  0.69240504  0.72089914  0.57354851     0.06360
C1105       C  0.65844007  0.69820024  0.54357268    -0.03610
C1106       C  0.66049135  0.64813840  0.53970346    -0.08060
C1107       C  0.69897882  0.62283519  0.56248128     0.05470
C1108       C  0.73482597  0.65078208  0.58530676    -0.03080
Br1109     Br  0.80293661  0.64303205  0.57301396    -0.02780
H1110       H  0.74738854  0.71176629  0.62680211     0.09380
H1111       H  0.63127247  0.62936128  0.52236125     0.07400
Br1112     Br  0.61679812  0.73595929  0.50257538    -0.03210
C1113       C  0.77611243  0.36334089  0.58098190    -0.09840
C1114       C  0.76397261  0.37982227  0.53410157     0.06360
C1115       C  0.79189633  0.35723395  0.49962811    -0.03610
C1116       C  0.78921031  0.30760461  0.50210301    -0.08060
C1117       C  0.78168687  0.28623071  0.54729720     0.05470
C1118       C  0.78323382  0.31415301  0.58798417    -0.03080
Br1119     Br  0.78359252  0.28599647  0.65094126    -0.02780
H1120       H  0.76231574  0.38012941  0.61162311     0.09380
H1121       H  0.79257822  0.28694035  0.47006731     0.07400
Br1122     Br  0.85820612  0.37724853  0.49338612    -0.03210
C1123       C  0.80065981  0.22432030  0.34137304    -0.09840
C1124       C  0.76516350  0.19385717  0.36159834     0.06360
C1125       C  0.71819456  0.19984344  0.34170467    -0.03610
C1126       C  0.70553270  0.24643781  0.32611507    -0.08060
C1127       C  0.73720564  0.28319216  0.34129751     0.05470
C1128       C  0.78709756  0.27271689  0.33659817    -0.03080
Br1129     Br  0.83683634  0.32061369  0.33883510    -0.02780
H1130       H  0.83899114  0.21564262  0.34542626     0.09380
H1131       H  0.66740817  0.25430410  0.31996869     0.07400
Br1132     Br  0.66720175  0.15506073  0.35377954    -0.03210
C1133       C  0.34531261  0.68963987  0.58826352    -0.09840
C1134       C  0.29592319  0.67867171  0.58596920     0.06360
C1135       C  0.28245935  0.63130194  0.57614088    -0.03610
C1136       C  0.31746826  0.59941332  0.56042907    -0.08060
C1137       C  0.36556660  0.61449478  0.54998465     0.05470
C1138       C  0.37630782  0.66351434  0.56014939    -0.03080
Br1139     Br  0.41712576  0.70538562  0.52399468    -0.02780
H1140       H  0.35566896  0.72618349  0.59688619     0.09380
H1141       H  0.30597712  0.56278458  0.55852393     0.07400
Br1142     Br  0.21709653  0.60834112  0.58271201    -0.03210
C1143       C  0.38380452  0.63849194  0.43763159    -0.09840
C1144       C  0.36729630  0.59140434  0.44530034     0.06360
C1145       C  0.31671262  0.58456093  0.44565067    -0.03610
C1146       C  0.28594749  0.62178356  0.43072822    -0.08060
C1147       C  0.30396512  0.66903141  0.42345387     0.05470
C1148       C  0.35371167  0.67639430  0.42379849    -0.03080
Br1149     Br  0.38180418  0.73814301  0.40866399    -0.02780
H1150       H  0.42042664  0.64617831  0.44207086     0.09380
H1151       H  0.24709399  0.61540751  0.43195019     0.07400
Br1152     Br  0.28806524  0.52779236  0.47266419    -0.03210
loop_ 
_geom_bond_atom_site_label_1 
_geom_bond_atom_site_label_2 
_geom_bond_distance 
_geom_bond_site_symmetry_2 
_ccdc_geom_bond_type 
Fe1          O17   2.082       .  S
Fe1           O7   2.069       .  S
Fe1          O14   2.023       .  S
Fe1           O6   2.115       .  S
Fe1          O12   1.984       .  S
Fe2           O5   2.033       .  S
Fe2           O9   1.938       .  S
Fe2          O13   2.037       .  S
Fe2          O18   1.999       .  S
Fe2          O12   2.009       .  S
Fe3          O21   2.307       .  S
Fe3           O8   2.239       .  S
Fe3          O15   2.265       .  S
Fe3           O4   2.258       .  S
Fe3          O12   1.871       .  S
O4           C11   1.319       .  A
O5           C19   1.265       .  A
O6           C11   1.274       .  A
O7           C10   1.263       .  A
O8           C20   1.311       .  A
O9           C22   1.243       .  A
C10          O15   1.319       .  A
C10         C567   1.574       .  S
C11         C400   1.583       .  S
O13          C16   1.264       .  A
O14          C16   1.272       .  A
C16        C1134   1.451       .  S
O17          C22   1.271       .  A
O18          C20   1.231       .  A
C19          O21   1.335       .  A
C19         C484   1.565       .  S
C20         C430   1.523       .  S
C22        C1147   1.453       .  S
Fe23         O39   2.090       .  S
Fe23         O29   2.031       .  S
Fe23         O36   2.078       .  S
Fe23         O28   2.011       .  S
Fe23         O34   2.039       .  S
Fe24         O27   1.934       .  S
Fe24         O31   2.032       .  S
Fe24         O35   1.996       .  S
Fe24         O40   2.050       .  S
Fe24         O34   1.919       .  S
Fe25         O43   2.430       .  S
Fe25         O30   2.286       .  S
Fe25         O37   2.267       .  S
Fe25         O26   2.304       .  S
Fe25         O34   1.790       .  S
O26          C33   1.339       .  A
O27          C41   1.257       .  A
O28          C33   1.271       .  A
O29          C32   1.248       .  A
O30          C42   1.328       .  A
O31          C44   1.266       .  A
C32          O37   1.323       .  A
C32         C652   1.543       .  S
C33         C347   1.534       .  S
O35          C38   1.281       .  A
O36          C38   1.233       .  A
C38        C1117   1.416       .  S
O39          C44   1.284       .  A
O40          C42   1.259       .  A
C41          O43   1.361       .  A
C41         C590   1.563       .  S
C42         C377   1.559       .  S
C44        C1124   1.487       .  S
Fe45         O61   1.982       .  S
Fe45         O51   2.046       .  S
Fe45         O58   2.046       .  S
Fe45         O50   2.040       .  S
Fe45         O56   1.928       .  S
Fe46         O49   1.990       .  S
Fe46         O53   2.068       .  S
Fe46         O57   1.963       .  S
Fe46         O62   2.075       .  S
Fe46         O56   2.021       .  S
Fe47         O65   2.299       .  S
Fe47         O52   2.275       .  S
Fe47         O59   2.327       .  S
Fe47         O48   2.296       .  S
Fe47         O56   1.818       .  S
O48          C55   1.330       .  A
O49          C63   1.243       .  A
O50          C55   1.268       .  A
O51          C54   1.246       .  A
O52          C64   1.328       .  A
O53          C66   1.268       .  A
C54          O59   1.332       .  A
C54         C483   1.592       .  S
C55         C431   1.566       .  S
O57          C60   1.238       .  A
O58          C60   1.271       .  A
C60        C1104   1.411       .  S
O61          C66   1.216       .  A
O62          C64   1.269       .  A
C63          O65   1.324       .  A
C63         C651   1.552       .  S
C64         C346   1.574       .  S
C66        C1094   1.400       .  S
Fe67         O83   2.007       .  S
Fe67         O73   2.017       .  S
Fe67         O80   1.996       .  S
Fe67         O72   2.035       .  S
Fe67         O78   1.953       .  S
Fe68         O71   2.075       .  S
Fe68         O75   1.992       .  S
Fe68         O79   2.046       .  S
Fe68         O84   2.009       .  S
Fe68         O78   1.977       .  S
Fe69         O87   2.309       .  S
Fe69         O74   2.270       .  S
Fe69         O81   2.286       .  S
Fe69         O70   2.209       .  S
Fe69         O78   1.818       .  S
O70          C77   1.311       .  A
O71          C85   1.285       .  A
O72          C77   1.253       .  A
O73          C76   1.256       .  A
O74          C86   1.303       .  A
O75          C88   1.240       .  A
C76          O81   1.327       .  A
C76         C620   1.558       .  S
C77         C554   1.520       .  S
O79          C82   1.273       .  A
O80          C82   1.277       .  A
C82        C1074   1.473       .  S
O83          C88   1.250       .  A
O84          C86   1.231       .  A
C85          O87   1.344       .  A
C85         C643   1.572       .  S
C86         C577   1.549       .  S
C88        C1087   1.414       .  S
Fe89        O105   1.968       .  S
Fe89         O95   2.048       .  S
Fe89        O102   2.059       .  S
Fe89         O94   1.988       .  S
Fe89        O100   2.023       .  S
Fe90         O93   2.074       .  S
Fe90         O97   2.052       .  S
Fe90        O101   2.022       .  S
Fe90        O106   2.078       .  S
Fe90        O100   1.933       .  S
Fe91        O109   2.269       .  S
Fe91         O96   2.275       .  S
Fe91        O103   2.233       .  S
Fe91         O92   2.294       .  S
Fe91        O100   1.814       .  S
O92          C99   1.339       .  A
O93         C107   1.259       .  A
O94          C99   1.269       .  A
O95          C98   1.245       .  A
O96         C108   1.322       .  A
O97         C110   1.286       .  A
C98         O103   1.301       .  A
C98         C514   1.548       .  S
C99         C629   1.523       .  S
O101        C104   1.251       .  A
O102        C104   1.250       .  A
C104       C1054   1.444       .  S
O105        C110   1.248       .  A
O106        C108   1.271       .  A
C107        O109   1.320       .  A
C107        C492   1.569       .  S
C108        C599   1.577       .  S
C110       C1064   1.457       .  S
Fe111       O127   2.050       .  S
Fe111       O117   2.077       .  S
Fe111       O124   2.024       .  S
Fe111       O116   2.132       .  S
Fe111       O122   1.962       .  S
Fe112       O115   2.025       .  S
Fe112       O119   2.018       .  S
Fe112       O123   2.015       .  S
Fe112       O128   2.037       .  S
Fe112       O122   2.038       .  S
Fe113       O131   2.355       .  S
Fe113       O118   2.270       .  S
Fe113       O125   2.292       .  S
Fe113       O114   2.293       .  S
Fe113       O122   1.860       .  S
O114        C121   1.323       .  A
O115        C129   1.265       .  A
O116        C121   1.276       .  A
O117        C120   1.265       .  A
O118        C130   1.310       .  A
O119        C132   1.252       .  A
C120        O125   1.329       .  A
C120        C471   1.587       .  S
C121        C523   1.614       .  S
O123        C126   1.261       .  A
O124        C126   1.277       .  A
C126       C1034   1.444       .  S
O127        C132   1.259       .  A
O128        C130   1.247       .  A
C129        O131   1.345       .  A
C129        C576   1.585       .  S
C130        C642   1.566       .  S
C132       C1047   1.460       .  S
Fe133       O149   2.097       .  S
Fe133       O139   2.065       .  S
Fe133       O146   2.006       .  S
Fe133       O138   2.057       .  S
Fe133       O144   1.990       .  S
Fe134       O137   2.100       .  S
Fe134       O141   1.987       .  S
Fe134       O145   2.111       .  S
Fe134       O150   2.043       .  S
Fe134       O144   1.987       .  S
Fe135       O153   2.249       .  S
Fe135       O140   2.332       .  S
Fe135       O147   2.353       .  S
Fe135       O136   2.301       .  S
Fe135       O144   1.838       .  S
O136        C143   1.323       .  A
O137        C151   1.271       .  A
O138        C143   1.255       .  A
O139        C142   1.272       .  A
O140        C152   1.334       .  A
O141        C154   1.244       .  A
C142        O147   1.344       .  A
C142        C545   1.605       .  S
C143        C462   1.587       .  S
O145        C148   1.276       .  A
O146        C148   1.234       .  A
C148       C1014   1.435       .  S
O149        C154   1.270       .  A
O150        C152   1.261       .  A
C151        O153   1.321       .  A
C151        C598   1.571       .  S
C152        C493   1.597       .  S
C154       C1024   1.427       .  S
Fe155       O171   1.993       .  S
Fe155       O161   2.057       .  S
Fe155       O168   2.030       .  S
Fe155       O160   2.025       .  S
Fe155       O166   1.974       .  S
Fe156       O159   2.013       .  S
Fe156       O163   2.085       .  S
Fe156       O167   1.980       .  S
Fe156       O172   2.088       .  S
Fe156       O166   2.007       .  S
Fe157       O175   2.272       .  S
Fe157       O162   2.265       .  S
Fe157       O169   2.299       .  S
Fe157       O158   2.272       .  S
Fe157       O166   1.852       .  S
O158        C165   1.322       .  A
O159        C173   1.261       .  A
O160        C165   1.257       .  A
O161        C164   1.256       .  A
O162        C174   1.319       .  A
O163        C176   1.266       .  A
C164        O169   1.327       .  A
C164        C461   1.583       .  S
C165        C546   1.547       .  S
O167        C170   1.244       .  A
O168        C170   1.267       .  A
C170        C994   1.408       .  S
O171        C176   1.242       .  A
O172        C174   1.263       .  A
C173        O175   1.322       .  A
C173        C439   1.541       .  S
C174        C387   1.582       .  S
C176       C1004   1.436       .  S
Fe177       O193   2.005       .  S
Fe177       O183   2.038       .  S
Fe177       O190   1.977       .  S
Fe177       O182   2.006       .  S
Fe177       O188   1.996       .  S
Fe178       O181   2.066       .  S
Fe178       O185   2.008       .  S
Fe178       O189   2.041       .  S
Fe178       O194   2.030       .  S
Fe178       O188   2.006       .  S
Fe179       O197   2.226       .  S
Fe179       O184   2.266       .  S
Fe179       O191   2.287       .  S
Fe179       O180   2.247       .  S
Fe179       O188   1.866       .  S
O180        C187   1.321       .  A
O181        C195   1.265       .  A
O182        C187   1.256       .  A
O183        C186   1.247       .  A
O184        C196   1.318       .  A
O185        C198   1.263       .  A
C186        O191   1.318       .  A
C186        C524   1.573       .  S
C187        C470   1.518       .  S
O189        C192   1.259       .  A
O190        C192   1.254       .  A
C192        C974   1.445       .  S
O193        C198   1.255       .  A
O194        C196   1.252       .  A
C195        O197   1.316       .  A
C195        C355   1.538       .  S
C196        C409   1.556       .  S
C198        C984   1.421       .  S
Fe199       O215   2.038       .  S
Fe199       O205   2.061       .  S
Fe199       O212   2.117       .  S
Fe199       O204   2.014       .  S
Fe199       O210   1.994       .  S
Fe200       O203   2.083       .  S
Fe200       O207   1.973       .  S
Fe200       O211   2.031       .  S
Fe200       O216   2.035       .  S
Fe200       O210   1.944       .  S
Fe201       O219   2.307       .  S
Fe201       O206   2.286       .  S
Fe201       O213   2.211       .  S
Fe201       O202   2.286       .  S
Fe201       O210   1.825       .  S
O202        C209   1.323       .  A
O203        C217   1.283       .  A
O204        C209   1.248       .  A
O205        C208   1.270       .  A
O206        C218   1.318       .  A
O207        C220   1.241       .  A
C208        O213   1.319       .  A
C208        C630   1.523       .  S
C209        C515   1.560       .  S
O211        C214   1.260       .  A
O212        C214   1.291       .  A
C214        C954   1.502       .  S
O215        C220   1.246       .  A
O216        C218   1.230       .  A
C217        O219   1.335       .  A
C217        C386   1.582       .  S
C218        C440   1.564       .  S
C220        C964   1.423       .  S
Fe221       O237   2.010       .  S
Fe221       O227   2.018       .  S
Fe221       O234   2.008       .  S
Fe221       O226   2.064       .  S
Fe221       O232   2.046       .  S
Fe222       O225   2.033       .  S
Fe222       O229   2.102       .  S
Fe222       O233   2.005       .  S
Fe222       O238   2.125       .  S
Fe222       O232   2.048       .  S
Fe223       O241   2.249       .  S
Fe223       O228   2.275       .  S
Fe223       O235   2.254       .  S
Fe223       O224   2.272       .  S
Fe223       O232   1.911       .  S
O224        C231   1.324       .  A
O225        C239   1.252       .  A
O226        C231   1.268       .  A
O227        C230   1.246       .  A
O228        C240   1.326       .  A
O229        C242   1.279       .  A
C230        O235   1.315       .  A
C230        C356   1.547       .  S
C231        C408   1.569       .  S
O233        C236   1.252       .  A
O234        C236   1.249       .  A
C236        C944   1.478       .  S
O237        C242   1.266       .  A
O238        C240   1.278       .  A
C239        O241   1.314       .  A
C239        C621   1.547       .  S
C240        C555   1.596       .  S
C242        C934   1.478       .  S
Fe243       O259   2.059       .  S
Fe243       O249   2.023       .  S
Fe243       O256   1.991       .  S
Fe243       O248   2.084       .  S
Fe243       O254   1.962       .  S
Fe244       O247   2.042       .  S
Fe244       O251   2.085       .  S
Fe244       O255   2.009       .  S
Fe244       O260   2.074       .  S
Fe244       O254   2.009       .  S
Fe245       O263   2.329       .  S
Fe245       O250   2.241       .  S
Fe245       O257   2.247       .  S
Fe245       O246   2.286       .  S
Fe245       O254   1.834       .  S
O246        C253   1.325       .  A
O247        C261   1.241       .  A
O248        C253   1.266       .  A
O249        C252   1.256       .  A
O250        C262   1.327       .  A
O251        C264   1.277       .  A
C252        O257   1.321       .  A
C252        C399   1.535       .  S
C253        C568   1.587       .  S
O255        C258   1.251       .  A
O256        C258   1.248       .  A
C258        C927   1.425       .  S
O259        C264   1.278       .  A
O260        C262   1.282       .  A
C261        O263   1.326       .  A
C261        C378   1.595       .  S
C262        C589   1.536       .  S
C264        C917   1.489       .  S
C265        C947   1.471       .  S
C265        C266   1.390       .  A
C265        C270   1.430       .  A
C266        C267   1.382       .  A
C266        H271   1.083       .  S
C267        C997   1.431       .  S
C267        C268   1.398       .  A
C268        C269   1.391       .  A
C268        H272   1.086       .  S
C269        C914   1.494       .  S
C269        C270   1.389       .  A
C270        H273   1.072       .  S
C274       C1077   1.506       .  S
C274        C275   1.412       .  A
C274        C279   1.426       .  A
C275        C276   1.372       .  A
C275        H280   1.066       .  S
C276       C1027   1.530       .  S
C276        C277   1.388       .  A
C277        C278   1.409       .  A
C277        H281   1.081       .  S
C278        C924   1.503       .  S
C278        C279   1.430       .  A
C279        H282   1.067       .  S
C283        C937   1.493       .  S
C283        C284   1.372       .  A
C283        C288   1.396       .  A
C284        C285   1.407       .  A
C284        H289   1.049       .  S
C285       C1114   1.498       .  S
C285        C286   1.395       .  A
C286        C287   1.401       .  A
C286        H290   1.084       .  S
C287        C967   1.478       .  S
C287        C288   1.411       .  A
C288        H291   1.071       .  S
C292        C957   1.492       .  S
C292        C293   1.390       .  A
C292        C297   1.386       .  A
C293        C294   1.397       .  A
C293        H298   1.083       .  S
C294        C987   1.469       .  S
C294        C295   1.413       .  A
C295        C296   1.410       .  A
C295        H299   1.082       .  S
C296       C1107   1.489       .  S
C296        C297   1.400       .  A
C297        H300   1.074       .  S
C301        C977   1.504       .  S
C301        C302   1.408       .  A
C301        C306   1.405       .  A
C302        C303   1.408       .  A
C302        H307   1.060       .  S
C303       C1137   1.520       .  S
C303        C304   1.414       .  A
C304        C305   1.396       .  A
C304        H308   1.075       .  S
C305       C1007   1.499       .  S
C305        C306   1.388       .  A
C306        H309   1.066       .  S
C310       C1017   1.493       .  S
C310        C311   1.395       .  A
C310        C315   1.399       .  A
C311        C312   1.394       .  A
C311        H316   1.073       .  S
C312       C1144   1.499       .  S
C312        C313   1.410       .  A
C313        C314   1.411       .  A
C313        H317   1.063       .  S
C314       C1044   1.516       .  S
C314        C315   1.405       .  A
C315        H318   1.081       .  S
C319       C1067   1.504       .  S
C319        C320   1.391       .  A
C319        C324   1.408       .  A
C320        C321   1.379       .  A
C320        H325   1.061       .  S
C321       C1097   1.467       .  S
C321        C322   1.400       .  A
C322        C323   1.414       .  A
C322        H326   1.068       .  S
C323       C1037   1.523       .  S
C323        C324   1.397       .  A
C324        H327   1.072       .  S
C328       C1084   1.456       .  S
C328        C329   1.386       .  A
C328        C333   1.384       .  A
C329        C330   1.407       .  A
C329        H334   1.071       .  S
C330       C1127   1.495       .  S
C330        C331   1.378       .  A
C331        C332   1.418       .  A
C331        H335   1.075       .  S
C332       C1057   1.466       .  S
C332        C333   1.404       .  A
C333        H336   1.085       .  S
Fe337       O353   2.014       .  S
Fe337       O343   2.062       .  S
Fe337       O350   2.049   1_565  S
Fe337       O342   2.057   1_565  S
Fe337       O348   1.971       .  S
Fe338       O341   1.996       .  S
Fe338       O345   2.019       .  S
Fe338       O349   2.003   1_565  S
Fe338       O354   2.039   1_565  S
Fe338       O348   2.032       .  S
Fe339       O357   2.282       .  S
Fe339       O344   2.242   1_565  S
Fe339       O351   2.267       .  S
Fe339       O340   2.229   1_565  S
Fe339       O348   1.865       .  S
O340        C347   1.316       .  A
O341        C355   1.254       .  A
O342        C347   1.267       .  A
O343        C346   1.256       .  A
O344        C356   1.312       .  A
O345        C358   1.255       .  A
C346        O351   1.320       .  A
O349        C352   1.251       .  A
O350        C352   1.271       .  A
C352        C894   1.438       .  S
O353        C358   1.249       .  A
O354        C356   1.250       .  A
C355        O357   1.326       .  A
C358        C904   1.440       .  S
C359        C897   1.531       .  S
C359        C360   1.409       .  A
C359        C364   1.398       .  A
C360        C361   1.414       .  A
C360        H365   1.075   1_556  S
C361        C874   1.504       .  S
C361        C362   1.409       .  A
C362        C363   1.402       .  A
C362        H366   1.073       .  S
C363        C884   1.523       .  S
C363        C364   1.409       .  A
C364        H367   1.065   1_545  S
Fe368       O384   2.028   1_455  S
Fe368       O374   2.044   1_455  S
Fe368       O381   2.012       .  S
Fe368       O373   2.085       .  S
Fe368       O379   2.005   1_455  S
Fe369       O372   2.053       .  S
Fe369       O376   2.024       .  S
Fe369       O380   2.017   1_655  S
Fe369       O385   2.063   1_655  S
Fe369       O379   2.021       .  S
Fe370       O388   2.309       .  S
Fe370       O375   2.286   1_655  S
Fe370       O382   2.260       .  S
Fe370       O371   2.309   1_655  S
Fe370       O379   1.886       .  S
O371        C378   1.334       .  A
O372        C386   1.262       .  A
O373        C378   1.269       .  A
O374        C377   1.253       .  A
O375        C387   1.323       .  A
O376        C389   1.263       .  A
C377        O382   1.317       .  A
O380        C383   1.254       .  A
O381        C383   1.262       .  A
C383        C864   1.431       .  S
O384        C389   1.256       .  A
O385        C387   1.258       .  A
C386        O388   1.329       .  A
C389        C887   1.446       .  S
Fe390       O406   2.036   1_565  S
Fe390       O396   2.006   1_565  S
Fe390       O403   1.991       .  S
Fe390       O395   2.056       .  S
Fe390       O401   1.990       .  S
Fe391       O394   2.064   1_565  S
Fe391       O398   2.035   1_565  S
Fe391       O402   2.023       .  S
Fe391       O407   2.074       .  S
Fe391       O401   1.971       .  S
Fe392       O410   2.272   1_565  S
Fe392       O397   2.245       .  S
Fe392       O404   2.234   1_565  S
Fe392       O393   2.325       .  S
Fe392       O401   1.841       .  S
O393        C400   1.337       .  A
O394        C408   1.259       .  A
O395        C400   1.273       .  A
O396        C399   1.235       .  A
O397        C409   1.319       .  A
O398        C411   1.278       .  A
C399        O404   1.300       .  A
O402        C405   1.262       .  A
O403        C405   1.246       .  A
C405        C854   1.427       .  S
O406        C411   1.261       .  A
O407        C409   1.265       .  A
C408        O410   1.319       .  A
C411        C847   1.448       .  S
C412        C867   1.517       .  S
C412        C413   1.393       .  A
C412        C417   1.400       .  A
C413        C414   1.387       .  A
C413        H418   1.053       .  S
C414        C844   1.502       .  S
C414        C415   1.408       .  A
C415        C416   1.423       .  A
C415        H419   1.079       .  S
C416        C834   1.499       .  S
C416        C417   1.416       .  A
C417        H420   1.082       .  S
Fe421       O437   2.131       .  S
Fe421       O427   1.952       .  S
Fe421       O434   1.985   1_455  S
Fe421       O426   2.111   1_455  S
Fe421       O432   2.016       .  S
Fe422       O425   2.126   1_655  S
Fe422       O429   2.090   1_655  S
Fe422       O433   2.133       .  S
Fe422       O438   1.920       .  S
Fe422       O432   1.903   1_655  S
Fe423       O441   2.200       .  S
Fe423       O428   2.466   1_455  S
Fe423       O435   2.313       .  S
Fe423       O424   2.246   1_455  S
Fe423       O432   1.801       .  S
O424        C431   1.323       .  A
O425        C439   1.269       .  A
O426        C431   1.277       .  A
O427        C430   1.249       .  A
O428        C440   1.373       .  A
O429        C442   1.306       .  A
C430        O435   1.339       .  A
O433        C436   1.264       .  A
O434        C436   1.256       .  A
C436        C824   1.511       .  S
O437        C442   1.249       .  A
O438        C440   1.250       .  A
C439        O441   1.310       .  A
C442        C814   1.442       .  S
C443        C817   1.511       .  S
C443        C444   1.393       .  A
C443        C448   1.403       .  A
C444        C445   1.382       .  A
C444        H449   1.077       .  S
C445        C857   1.438       .  S
C445        C446   1.397       .  A
C446        C447   1.406       .  A
C446        H450   1.084       .  S
C447        C804   1.508       .  S
C447        C448   1.408       .  A
C448        H451   1.067       .  S
Fe452       O468   2.019       .  S
Fe452       O458   2.085       .  S
Fe452       O465   2.033   1_556  S
Fe452       O457   2.107   1_556  S
Fe452       O463   1.939       .  S
Fe453       O456   1.990       .  S
Fe453       O460   2.073       .  S
Fe453       O464   1.967   1_556  S
Fe453       O469   2.059   1_556  S
Fe453       O463   2.064       .  S
Fe454       O472   2.270   1_554  S
Fe454       O459   2.289       .  S
Fe454       O466   2.281   1_554  S
Fe454       O455   2.264       .  S
Fe454       O463   1.846   1_554  S
O455        C462   1.320       .  A
O456        C470   1.259       .  A
O457        C462   1.269       .  A
O458        C461   1.266       .  A
O459        C471   1.319       .  A
O460        C473   1.252       .  A
C461        O466   1.327       .  A
O464        C467   1.247       .  A
O465        C467   1.276       .  A
C467        C797   1.411       .  S
O468        C473   1.256       .  A
O469        C471   1.257       .  A
C470        O472   1.326       .  A
C473        C807   1.457       .  S
Fe474       O490   2.012   1_455  S
Fe474       O480   2.064   1_455  S
Fe474       O487   2.073       .  S
Fe474       O479   2.069       .  S
Fe474       O485   1.967   1_455  S
Fe475       O478   1.997       .  S
Fe475       O482   2.063       .  S
Fe475       O486   1.939   1_655  S
Fe475       O491   2.074   1_655  S
Fe475       O485   2.006       .  S
Fe476       O494   2.342   1_455  S
Fe476       O481   2.300       .  S
Fe476       O488   2.322   1_455  S
Fe476       O477   2.264       .  S
Fe476       O485   1.819   1_455  S
O477        C484   1.319       .  A
O478        C492   1.265       .  A
O479        C484   1.261       .  A
O480        C483   1.261       .  A
O481        C493   1.319       .  A
O482        C495   1.262       .  A
C483        O488   1.341       .  A
O486        C489   1.226       .  A
O487        C489   1.289       .  A
C489        C777   1.427       .  S
O490        C495   1.242       .  A
O491        C493   1.255       .  A
C492        O494   1.342       .  A
C495        C787   1.442       .  S
C496        C764   1.495       .  S
C496        C497   1.400       .  A
C496        C501   1.395       .  A
C497        C498   1.401       .  A
C497        H502   1.056       .  S
C498        C794   1.512       .  S
C498        C499   1.409       .  A
C499        C500   1.398       .  A
C499        H503   1.074       .  S
C500        C774   1.487       .  S
C500        C501   1.397       .  A
C501        H504   1.075       .  S
Fe505       O521   2.028       .  S
Fe505       O511   1.991       .  S
Fe505       O518   1.948   1_554  S
Fe505       O510   2.083   1_554  S
Fe505       O516   2.047       .  S
Fe506       O509   2.152       .  S
Fe506       O513   2.017       .  S
Fe506       O517   2.132   1_554  S
Fe506       O522   2.065   1_554  S
Fe506       O516   2.000       .  S
Fe507       O525   2.295       .  S
Fe507       O512   2.266   1_554  S
Fe507       O519   2.276       .  S
Fe507       O508   2.239   1_554  S
Fe507       O516   1.884       .  S
O508        C515   1.318       .  A
O509        C523   1.289       .  A
O510        C515   1.262       .  A
O511        C514   1.248       .  A
O512        C524   1.315       .  A
O513        C526   1.248       .  A
C514        O519   1.316       .  A
O517        C520   1.287       .  A
O518        C520   1.252       .  A
C520        C754   1.461       .  S
O521        C526   1.246       .  A
O522        C524   1.253       .  A
C523        O525   1.333       .  A
C526        C747   1.476       .  S
C527        C737   1.510       .  S
C527        C528   1.407       .  A
C527        C532   1.397       .  A
C528        C529   1.373       .  A
C528        H533   1.076       .  S
C529        C784   1.509       .  S
C529        C530   1.393       .  A
C530        C531   1.409       .  A
C530        H534   1.070       .  S
C531        C744   1.502   1_554  S
C531        C532   1.422       .  A
C532        H535   1.052       .  S
Fe536       O552   2.015   1_556  S
Fe536       O542   2.075   1_556  S
Fe536       O549   2.043       .  S
Fe536       O541   2.054       .  S
Fe536       O547   1.966       .  S
Fe537       O540   1.986   1_556  S
Fe537       O544   2.049   1_556  S
Fe537       O548   2.000       .  S
Fe537       O553   2.051       .  S
Fe537       O547   2.025       .  S
Fe538       O556   2.262   1_556  S
Fe538       O543   2.317       .  S
Fe538       O550   2.323   1_556  S
Fe538       O539   2.255       .  S
Fe538       O547   1.844       .  S
O539        C546   1.321       .  A
O540        C554   1.253       .  A
O541        C546   1.267       .  A
O542        C545   1.256       .  A
O543        C555   1.326       .  A
O544        C557   1.261       .  A
C545        O550   1.330       .  A
O548        C551   1.246       .  A
O549        C551   1.270       .  A
C551        C837   1.449       .  S
O552        C557   1.248       .  A
O553        C555   1.255       .  A
C554        O556   1.323       .  A
C557        C724   1.427       .  S
Fe558       O574   1.969       .  S
Fe558       O564   2.059       .  S
Fe558       O571   2.041   1_565  S
Fe558       O563   2.043   1_565  S
Fe558       O569   2.008   1_565  S
Fe559       O562   2.099       .  S
Fe559       O566   2.033       .  S
Fe559       O570   2.059   1_565  S
Fe559       O575   2.082   1_565  S
Fe559       O569   1.991   1_565  S
Fe560       O578   2.262       .  S
Fe560       O565   2.231   1_565  S
Fe560       O572   2.256       .  S
Fe560       O561   2.337   1_565  S
Fe560       O569   1.856   1_565  S
O561        C568   1.341       .  A
O562        C576   1.261       .  A
O563        C568   1.272       .  A
O564        C567   1.253       .  A
O565        C577   1.322       .  A
O566        C579   1.287       .  A
C567        O572   1.304       .  A
O570        C573   1.265       .  A
O571        C573   1.262       .  A
C573        C714   1.478       .  S
O574        C579   1.243       .  A
O575        C577   1.273       .  A
C576        O578   1.316       .  A
C579        C767   1.436       .  S
Fe580       O596   2.060       .  S
Fe580       O586   2.001       .  S
Fe580       O593   1.992       .  S
Fe580       O585   2.076   1_455  S
Fe580       O591   1.994       .  S
Fe581       O584   2.081       .  S
Fe581       O588   2.062       .  S
Fe581       O592   2.048   1_455  S
Fe581       O597   2.118   1_455  S
Fe581       O591   1.950       .  S
Fe582       O600   2.259       .  S
Fe582       O587   2.244   1_455  S
Fe582       O594   2.253       .  S
Fe582       O583   2.291   1_455  S
Fe582       O591   1.855       .  S
O583        C590   1.336       .  A
O584        C598   1.264       .  A
O585        C590   1.282       .  A
O586        C589   1.231       .  A
O587        C599   1.315       .  A
O588        C601   1.285       .  A
C589        O594   1.298       .  A
O592        C595   1.266       .  A
O593        C595   1.248   1_455  A
C595        C707   1.435       .  S
O596        C601   1.273       .  A
O597        C599   1.277       .  A
C598        O600   1.317       .  A
C601        C694   1.479       .  S
C602        C697   1.511       .  S
C602        C603   1.382       .  A
C602        C607   1.395       .  A
C603        C604   1.403       .  A
C603        H608   1.065       .  S
C604        C727   1.468       .  S
C604        C605   1.409       .  A
C605        C606   1.406       .  A
C605        H609   1.083       .  S
C606        C717   1.486       .  S
C606        C607   1.415       .  A
C607        H610   1.067       .  S
Fe611       O627   2.023       .  S
Fe611       O617   2.043       .  S
Fe611       O624   1.992   1_554  S
Fe611       O616   2.038   1_554  S
Fe611       O622   1.963   1_554  S
Fe612       O615   1.998   1_556  S
Fe612       O619   2.006   1_556  S
Fe612       O623   2.001       .  S
Fe612       O628   1.994       .  S
Fe612       O622   2.010       .  S
Fe613       O631   2.244       .  S
Fe613       O618   2.242   1_554  S
Fe613       O625   2.260       .  S
Fe613       O614   2.283   1_554  S
Fe613       O622   1.836   1_554  S
O614        C621   1.331       .  A
O615        C629   1.246       .  A
O616        C621   1.271       .  A
O617        C620   1.242       .  A
O618        C630   1.315       .  A
O619        C632   1.264       .  A
C620        O625   1.308       .  A
O623        C626   1.246       .  A
O624        C626   1.256       .  A
C626        C877   1.419       .  S
O627        C632   1.250       .  A
O628        C630   1.250       .  A
C629        O631   1.316       .  A
C632        C684   1.395       .  S
Fe633       O649   2.026   1_545  S
Fe633       O639   2.046   1_545  S
Fe633       O646   2.003       .  S
Fe633       O638   2.029       .  S
Fe633       O644   1.989       .  S
Fe634       O637   2.083   1_545  S
Fe634       O641   1.974   1_545  S
Fe634       O645   2.079       .  S
Fe634       O650   1.985       .  S
Fe634       O644   1.957       .  S
Fe635       O653   2.240   1_545  S
Fe635       O640   2.282       .  S
Fe635       O647   2.304   1_545  S
Fe635       O636   2.297       .  S
Fe635       O644   1.819       .  S
O636        C643   1.320       .  A
O637        C651   1.266       .  A
O638        C643   1.245       .  A
O639        C642   1.268       .  A
O640        C652   1.323       .  A
O641        C654   1.239       .  A
C642        O647   1.332       .  A
O645        C648   1.288       .  A
O646        C648   1.251       .  A
C648        C674   1.498       .  S
O649        C654   1.262       .  A
O650        C652   1.246       .  A
C651        O653   1.323       .  A
C654        C734   1.430       .  S
C655        C704   1.471       .  S
C655        C656   1.418       .  A
C655        C660   1.411       .  A
C656        C657   1.412       .  A
C656        H661   1.078       .  S
C657        C687   1.473       .  S
C657        C658   1.387       .  A
C658        C659   1.383       .  A
C658        H662   1.075       .  S
C659        C677   1.491       .  S
C659        C660   1.378       .  A
C660        H663   1.076       .  S
C664        C827   1.496       .  S
C664        C665   1.387       .  A
C664        C669   1.408       .  A
C665        C666   1.388       .  A
C665        H670   1.074   1_655  S
C666        C907   1.520       .  S
C666        C667   1.434       .  A
C667        C668   1.421       .  A
C667        H671   1.076       .  S
C668        C757   1.495       .  S
C668        C669   1.397       .  A
C669        H672   1.080       .  S
C673        C674   1.384       .  A
C673        C678   1.395       .  A
C673        H680   1.071       .  S
C674        C675   1.396       .  A
C675        C676   1.397       .  A
C675       Br682   1.897       .  S
C676        C677   1.430       .  A
C676        H681   1.074       .  S
C677        C678   1.444       .  A
C678       Br679   1.894       .  S
C683        C684   1.391       .  A
C683        C688   1.371       .  A
C683        H690   1.085       .  S
C684        C685   1.372       .  A
C685        C686   1.366       .  A
C685       Br692   1.922       .  S
C686        C687   1.418       .  A
C686        H691   1.054       .  S
C687        C688   1.418       .  A
C688       Br689   1.902       .  S
C693        C694   1.401       .  A
C693        C698   1.408       .  A
C693        H700   1.083       .  S
C694        C695   1.391       .  A
C695        C696   1.398       .  A
C695       Br702   1.900       .  S
C696        C697   1.422       .  A
C696        H701   1.080       .  S
C697        C698   1.440       .  A
C698       Br699   1.916       .  S
C703        C704   1.407       .  A
C703        C708   1.387       .  A
C703        H710   1.076       .  S
C704        C705   1.407       .  A
C705        C706   1.381       .  A
C705       Br712   1.917       .  S
C706        C707   1.402       .  A
C706        H711   1.083       .  S
C707        C708   1.391       .  A
C708       Br709   1.924       .  S
C713        C714   1.420       .  A
C713        C718   1.417       .  A
C713        H720   1.082       .  S
C714        C715   1.416       .  A
C715        C716   1.393       .  A
C715       Br722   1.935       .  S
C716        C717   1.391       .  A
C716        H721   1.057       .  S
C717        C718   1.395       .  A
C718       Br719   1.933       .  S
C723        C724   1.405       .  A
C723        C728   1.389       .  A
C723        H730   1.083       .  S
C724        C725   1.381       .  A
C725        C726   1.369       .  A
C725       Br732   1.927       .  S
C726        C727   1.411       .  A
C726        H731   1.050       .  S
C727        C728   1.406       .  A
C728       Br729   1.918       .  S
C733        C734   1.375       .  A
C733        C738   1.382       .  A
C733        H740   1.086       .  S
C734        C735   1.385       .  A
C735        C736   1.367       .  A
C735       Br742   1.926       .  S
C736        C737   1.416       .  A
C736        H741   1.064       .  S
C737        C738   1.439       .  A
C738       Br739   1.887       .  S
C743        C744   1.398       .  A
C743        C748   1.393       .  A
C743        H750   1.067       .  S
C744        C745   1.407   1_556  A
C745        C746   1.394       .  A
C745       Br752   1.894       .  S
C746        C747   1.406       .  A
C746        H751   1.083       .  S
C747        C748   1.411   1_554  A
C748       Br749   1.928       .  S
C753        C754   1.405       .  A
C753        C758   1.387       .  A
C753        H760   1.084       .  S
C754        C755   1.370       .  A
C755        C756   1.389       .  A
C755       Br762   1.919       .  S
C756        C757   1.408       .  A
C756        H761   1.045       .  S
C757        C758   1.416       .  A
C758       Br759   1.901       .  S
C763        C764   1.421       .  A
C763        C768   1.390       .  A
C763        H770   1.055       .  S
C764        C765   1.423       .  A
C765        C766   1.395       .  A
C765       Br772   1.908       .  S
C766        C767   1.402       .  A
C766        H771   1.084       .  S
C767        C768   1.371       .  A
C768       Br769   1.929       .  S
C773        C774   1.429       .  A
C773        C778   1.378       .  A
C773        H780   1.036       .  S
C774        C775   1.416       .  A
C775        C776   1.394       .  A
C775       Br782   1.897       .  S
C776        C777   1.401       .  A
C776        H781   1.085       .  S
C777        C778   1.358       .  A
C778       Br779   1.919       .  S
C783        C784   1.405       .  A
C783        C788   1.394       .  A
C783        H790   1.083       .  S
C784        C785   1.413       .  A
C785        C786   1.377       .  A
C785       Br792   1.886       .  S
C786        C787   1.383       .  A
C786        H791   1.086       .  S
C787        C788   1.408       .  A
C788       Br789   1.920       .  S
C793        C794   1.418       .  A
C793        C798   1.378       .  A
C793        H800   1.060       .  S
C794        C795   1.431       .  A
C795        C796   1.389       .  A
C795       Br802   1.917       .  S
C796        C797   1.396       .  A
C796        H801   1.084       .  S
C797        C798   1.375       .  A
C798       Br799   1.947       .  S
C803        C804   1.420       .  A
C803        C808   1.408       .  A
C803        H810   1.083       .  S
C804        C805   1.416   1_556  A
C805        C806   1.373   1_554  A
C805       Br812   1.913       .  S
C806        C807   1.396       .  A
C806        H811   1.073       .  S
C807        C808   1.409       .  A
C808       Br809   1.918       .  S
C813        C814   1.408       .  A
C813        C818   1.411       .  A
C813        H820   1.083       .  S
C814        C815   1.407       .  A
C815        C816   1.395       .  A
C815       Br822   1.884   1_455  S
C816        C817   1.395       .  A
C816        H821   1.083       .  S
C817        C818   1.418       .  A
C818       Br819   1.909       .  S
C823        C824   1.425       .  A
C823        C828   1.404       .  A
C823        H830   1.076       .  S
C824        C825   1.382       .  A
C825        C826   1.399       .  A
C825       Br832   1.905       .  S
C826        C827   1.429       .  A
C826        H831   1.056       .  S
C827        C828   1.412       .  A
C828       Br829   1.915   1_655  S
C833        C834   1.411       .  A
C833        C838   1.378       .  A
C833        H840   1.065       .  S
C834        C835   1.410       .  A
C835        C836   1.400       .  A
C835       Br842   1.919       .  S
C836        C837   1.412       .  A
C836        H841   1.083       .  S
C837        C838   1.389       .  A
C838       Br839   1.935       .  S
C843        C844   1.429       .  A
C843        C848   1.396       .  A
C843        H850   1.069       .  S
C844        C845   1.435       .  A
C845        C846   1.404       .  A
C845       Br852   1.936       .  S
C846        C847   1.392       .  A
C846        H851   1.085       .  S
C847        C848   1.389       .  A
C848       Br849   1.911       .  S
C853        C854   1.382       .  A
C853        C858   1.357       .  A
C853        H860   1.086       .  S
C854        C855   1.415       .  A
C855        C856   1.393       .  A
C855       Br862   1.922       .  S
C856        C857   1.397       .  A
C856        H861   1.082       .  S
C857        C858   1.404       .  A
C858       Br859   1.919       .  S
C863        C864   1.382       .  A
C863        C868   1.378       .  A
C863        H870   1.086       .  S
C864        C865   1.411       .  A
C865        C866   1.399       .  A
C865       Br872   1.914       .  S
C866        C867   1.410       .  A
C866        H871   1.078       .  S
C867        C868   1.421       .  A
C868       Br869   1.930       .  S
C873        C874   1.408       .  A
C873        C878   1.365       .  A
C873        H880   1.054       .  S
C874        C875   1.416       .  A
C875        C876   1.395       .  A
C875       Br882   1.899   1_556  S
C876        C877   1.403       .  A
C876        H881   1.084       .  S
C877        C878   1.380       .  A
C878       Br879   1.933       .  S
C883        C884   1.413       .  A
C883        C888   1.385       .  A
C883        H890   1.051       .  S
C884        C885   1.411       .  A
C885        C886   1.395       .  A
C885       Br892   1.893       .  S
C886        C887   1.395       .  A
C886        H891   1.081       .  S
C887        C888   1.385       .  A
C888       Br889   1.932       .  S
C893        C894   1.404       .  A
C893        C898   1.401       .  A
C893        H900   1.084       .  S
C894        C895   1.378       .  A
C895        C896   1.376       .  A
C895       Br902   1.933       .  S
C896        C897   1.405       .  A
C896        H901   1.036       .  S
C897        C898   1.409       .  A
C898       Br899   1.872   1_545  S
C903        C904   1.385       .  A
C903        C908   1.379       .  A
C903        H910   1.084       .  S
C904        C905   1.382       .  A
C905        C906   1.392       .  A
C905       Br912   1.913       .  S
C906        C907   1.412       .  A
C906        H911   1.074       .  S
C907        C908   1.446       .  A
C908       Br909   1.934       .  S
C913        C914   1.423       .  A
C913        C918   1.396       .  A
C913        H920   1.068       .  S
C914        C915   1.413       .  A
C915        C916   1.407       .  A
C915       Br922   1.913       .  S
C916        C917   1.412       .  A
C916        H921   1.076       .  S
C917        C918   1.391       .  A
C918       Br919   1.915       .  S
C923        C924   1.423       .  A
C923        C928   1.374       .  A
C923        H930   1.078       .  S
C924        C925   1.418       .  A
C925        C926   1.386       .  A
C925       Br932   1.914       .  S
C926        C927   1.395       .  A
C926        H931   1.084       .  S
C927        C928   1.383       .  A
C928       Br929   1.929       .  S
C933        C934   1.407       .  A
C933        C938   1.393       .  A
C933        H940   1.085       .  S
C934        C935   1.395       .  A
C935        C936   1.395       .  A
C935       Br942   1.916       .  S
C936        C937   1.410       .  A
C936        H941   1.067       .  S
C937        C938   1.414       .  A
C938       Br939   1.911       .  S
C943        C944   1.413       .  A
C943        C948   1.405       .  A
C943        H950   1.080       .  S
C944        C945   1.398       .  A
C945        C946   1.393       .  A
C945       Br952   1.918       .  S
C946        C947   1.405       .  A
C946        H951   1.079       .  S
C947        C948   1.384       .  A
C948       Br949   1.895       .  S
C953        C954   1.416       .  A
C953        C958   1.412       .  A
C953        H960   1.077       .  S
C954        C955   1.383       .  A
C955        C956   1.395       .  A
C955       Br962   1.907       .  S
C956        C957   1.430       .  A
C956        H961   1.061       .  S
C957        C958   1.424       .  A
C958       Br959   1.920       .  S
C963        C964   1.398       .  A
C963        C968   1.389       .  A
C963        H970   1.080       .  S
C964        C965   1.401       .  A
C965        C966   1.361       .  A
C965       Br972   1.927       .  S
C966        C967   1.398       .  A
C966        H971   1.079       .  S
C967        C968   1.398       .  A
C968       Br969   1.878       .  S
C973        C974   1.404       .  A
C973        C978   1.394       .  A
C973        H980   1.084       .  S
C974        C975   1.406       .  A
C975        C976   1.375       .  A
C975       Br982   1.937       .  S
C976        C977   1.410       .  A
C976        H981   1.073       .  S
C977        C978   1.411       .  A
C978       Br979   1.913       .  S
C983        C984   1.398       .  A
C983        C988   1.386       .  A
C983        H990   1.084       .  S
C984        C985   1.387       .  A
C985        C986   1.374       .  A
C985       Br992   1.933       .  S
C986        C987   1.403       .  A
C986        H991   1.060       .  S
C987        C988   1.414       .  A
C988       Br989   1.912       .  S
C993        C994   1.376       .  A
C993        C998   1.356       .  A
C993       H1000   1.087       .  S
C994        C995   1.412       .  A
C995        C996   1.384       .  A
C995      Br1002   1.921       .  S
C996        C997   1.391       .  A
C996       H1001   1.078       .  S
C997        C998   1.410       .  A
C998       Br999   1.892       .  S
C1003      C1004   1.405       .  A
C1003      C1008   1.395       .  A
C1003      H1010   1.079       .  S
C1004      C1005   1.368       .  A
C1005      C1006   1.382       .  A
C1005     Br1012   1.918       .  S
C1006      C1007   1.416       .  A
C1006      H1011   1.061       .  S
C1007      C1008   1.400       .  A
C1008     Br1009   1.901       .  S
C1013      C1014   1.407       .  A
C1013      C1018   1.396       .  A
C1013      H1020   1.084       .  S
C1014      C1015   1.372       .  A
C1015      C1016   1.373       .  A
C1015     Br1022   1.914       .  S
C1016      C1017   1.422       .  A
C1016      H1021   1.063       .  S
C1017      C1018   1.405       .  A
C1018     Br1019   1.909       .  S
C1023      C1024   1.376       .  A
C1023      C1028   1.382       .  A
C1023      H1030   1.081       .  S
C1024      C1025   1.410       .  A
C1025      C1026   1.409       .  A
C1025     Br1032   1.917       .  S
C1026      C1027   1.387       .  A
C1026      H1031   1.071       .  S
C1027      C1028   1.418       .  A
C1028     Br1029   1.896       .  S
C1033      C1034   1.389       .  A
C1033      C1038   1.389       .  A
C1033      H1040   1.084       .  S
C1034      C1035   1.392       .  A
C1035      C1036   1.389       .  A
C1035     Br1042   1.917       .  S
C1036      C1037   1.427       .  A
C1036      H1041   1.065       .  S
C1037      C1038   1.424       .  A
C1038     Br1039   1.919       .  S
C1043      C1044   1.414       .  A
C1043      C1048   1.384       .  A
C1043      H1050   1.076       .  S
C1044      C1045   1.416       .  A
C1045      C1046   1.393       .  A
C1045     Br1052   1.931       .  S
C1046      C1047   1.408       .  A
C1046      H1051   1.083       .  S
C1047      C1048   1.394       .  A
C1048     Br1049   1.937       .  S
C1053      C1054   1.403       .  A
C1053      C1058   1.381       .  A
C1053      H1060   1.079       .  S
C1054      C1055   1.405       .  A
C1055      C1056   1.396       .  A
C1055     Br1062   1.917       .  S
C1056      C1057   1.407       .  A
C1056      H1061   1.083       .  S
C1057      C1058   1.396       .  A
C1058     Br1059   1.896       .  S
C1063      C1064   1.378       .  A
C1063      C1068   1.399       .  A
C1063      H1070   1.084       .  S
C1064      C1065   1.386       .  A
C1065      C1066   1.400       .  A
C1065     Br1072   1.932       .  S
C1066      C1067   1.416       .  A
C1066      H1071   1.074       .  S
C1067      C1068   1.446       .  A
C1068     Br1069   1.919       .  S
C1073      C1074   1.385       .  A
C1073      C1078   1.405       .  A
C1073      H1080   1.084       .  S
C1074      C1075   1.398       .  A
C1075      C1076   1.404       .  A
C1075     Br1082   1.909       .  S
C1076      C1077   1.432       .  A
C1076      H1081   1.080       .  S
C1077      C1078   1.444       .  A
C1078     Br1079   1.906       .  S
C1083      C1084   1.413       .  A
C1083      C1088   1.363       .  A
C1083      H1090   1.069       .  S
C1084      C1085   1.403       .  A
C1085      C1086   1.379       .  A
C1085     Br1092   1.909       .  S
C1086      C1087   1.400       .  A
C1086      H1091   1.084       .  S
C1087      C1088   1.385       .  A
C1088     Br1089   1.930       .  S
C1093      C1094   1.405       .  A
C1093      C1098   1.393       .  A
C1093      H1100   1.079       .  S
C1094      C1095   1.343       .  A
C1095      C1096   1.356       .  A
C1095     Br1102   1.925       .  S
C1096      C1097   1.415       .  A
C1096      H1101   1.045       .  S
C1097      C1098   1.401       .  A
C1098     Br1099   1.921       .  S
C1103      C1104   1.380       .  A
C1103      C1108   1.373       .  A
C1103      H1110   1.087       .  S
C1104      C1105   1.405       .  A
C1105      C1106   1.399       .  A
C1105     Br1112   1.908       .  S
C1106      C1107   1.407       .  A
C1106      H1111   1.074       .  S
C1107      C1108   1.410       .  A
C1108     Br1109   1.921       .  S
C1113      C1114   1.419       .  A
C1113      C1118   1.391       .  A
C1113      H1120   1.060       .  S
C1114      C1115   1.400       .  A
C1115      C1116   1.382       .  A
C1115     Br1122   1.917       .  S
C1116      C1117   1.409       .  A
C1116      H1121   1.080       .  S
C1117      C1118   1.392       .  A
C1118     Br1119   1.919       .  S
C1123      C1124   1.413       .  A
C1123      C1128   1.398       .  A
C1123      H1130   1.084       .  S
C1124      C1125   1.407       .  A
C1125      C1126   1.401       .  A
C1125     Br1132   1.908       .  S
C1126      C1127   1.411       .  A
C1126      H1131   1.080       .  S
C1127      C1128   1.410       .  A
C1128     Br1129   1.912       .  S
C1133      C1134   1.393       .  A
C1133      C1138   1.383       .  A
C1133      H1140   1.086       .  S
C1134      C1135   1.400       .  A
C1135      C1136   1.389       .  A
C1135     Br1142   1.919       .  S
C1136      C1137   1.422       .  A
C1136      H1141   1.069       .  S
C1137      C1138   1.428       .  A
C1138     Br1139   1.909       .  S
C1143      C1144   1.401       .  A
C1143      C1148   1.384       .  A
C1143      H1150   1.036       .  S
C1144      C1145   1.404       .  A
C1145      C1146   1.389       .  A
C1145     Br1152   1.915       .  S
C1146      C1147   1.417       .  A
C1146      H1151   1.084       .  S
C1147      C1148   1.383       .  A
C1148     Br1149   1.927       .  S
