geometry optimzed in LAMMPS
_audit_creation_date              2020-11-30 
_audit_creation_method            'lammps2cif' 
_symmetry_space_group_name_H-M    'P1' 
_symmetry_Int_Tables_number       1 
_symmetry_cell_setting            triclinic 
loop_ 
_symmetry_equiv_pos_as_xyz 
  x,y,z 
_cell_length_a                    29.99819279 
_cell_length_b                    77.47710288398797 
_cell_length_c                    28.405718232028903 
_cell_angle_alpha                 90.06690345287954 
_cell_angle_beta                  89.77752693614322 
_cell_angle_gamma                 89.99429560287004 
loop_ 
_atom_site_label 
_atom_site_type_symbol 
_atom_site_fract_x 
_atom_site_fract_y 
_atom_site_fract_z 
_atom_site_charge 
C1          C  0.33419341  0.33827341  0.46874723     0.04100
C2          C  0.31493004  0.35446110  0.45920160    -0.12100
C3          C  0.26847203  0.35645657  0.45952386     0.01600
C4          C  0.24141372  0.34214731  0.46897164    -0.10600
C5          C  0.25980979  0.32599649  0.48024068     0.04100
C6          C  0.30657412  0.32420809  0.48045135    -0.10000
H7          H  0.33604340  0.36543101  0.45120006     0.09700
H8          H  0.20554812  0.34373955  0.46796680     0.07200
H9          H  0.32161437  0.31194195  0.48936212     0.07000
C10         C  0.33184958  0.62903542  0.45769264     0.04100
C11         C  0.30617822  0.64418761  0.46223191    -0.12100
C12         C  0.25943251  0.64358847  0.45876648     0.01600
C13         C  0.23847136  0.62764360  0.45122572    -0.10600
C14         C  0.26339045  0.61238183  0.44737889     0.04100
C15         C  0.31002570  0.61316347  0.45075504    -0.10000
H16         H  0.32250067  0.65642850  0.46876891     0.09700
H17         H  0.20239851  0.62700342  0.45044631     0.07200
H18         H  0.32937676  0.60141431  0.44723924     0.07000
C19         C  0.66844344  0.62844430  0.45724478     0.04100
C20         C  0.69074796  0.61282025  0.44798798    -0.12100
C21         C  0.73759331  0.61204560  0.44840908     0.01600
C22         C  0.76184777  0.62724411  0.45635821    -0.10600
C23         C  0.74013113  0.64295509  0.46493980     0.04100
C24         C  0.69337290  0.64345801  0.46619966    -0.10000
H25         H  0.67156643  0.60124037  0.44119058     0.09700
H26         H  0.79795442  0.62678302  0.45745316     0.07200
H27         H  0.67644070  0.65555321  0.47321625     0.07000
O28         O  0.04960451  0.50163713  0.40543723    -0.72000
O29         O  0.95441534  0.46545425  0.40713256    -0.73000
O30         O  0.95521556  0.50194716  0.40530372    -0.61600
O31         O  0.04899241  0.46501668  0.40705609    -0.70000
O32         O  0.04860812  0.46521592  0.48499352    -0.69600
O33         O  0.95448432  0.50258378  0.48321629    -0.60800
O34         O  0.95348885  0.46582629  0.48507085    -0.73300
O35         O  0.04940552  0.50215187  0.48337945    -0.72400
Cu36       Cu  0.00209413  0.48348219  0.40364747     1.04600
Cu37       Cu  0.00153327  0.48395485  0.48695629     1.04300
C38         C  0.06440474  0.50778340  0.44407089     0.94200
C39         C  0.93864099  0.45991552  0.44611188     0.93300
C40         C  0.93992668  0.50817292  0.44376795     0.85500
C41         C  0.06369430  0.45918449  0.44608134     0.91800
C42         C  0.66918651  0.33934304  0.45766850     0.04100
C43         C  0.69067260  0.35527124  0.45066159    -0.12100
C44         C  0.73721736  0.35650007  0.45350700     0.01600
C45         C  0.76222990  0.34172139  0.46396545    -0.10600
C46         C  0.74136135  0.32574114  0.47143571     0.04100
C47         C  0.69477198  0.32460699  0.46771555    -0.10000
H48         H  0.67120916  0.36668912  0.44277662     0.09700
H49         H  0.79814203  0.34272859  0.46685649     0.07200
H50         H  0.67820545  0.31243210  0.47457379     0.07000
C51         C  0.99512612  0.20980265  0.59785007     0.87400
C52         C  0.03485125  0.22233031  0.59386201    -0.52800
C53         C  0.03701986  0.23118372  0.55226406     0.10400
C54         C  0.99912469  0.22659870  0.51823263     0.21300
C55         C  0.95412218  0.22131924  0.58806243    -0.53500
C56         C  0.95629895  0.23011695  0.54650320     0.10500
C57         C  0.99869104  0.19816124  0.55426543    -0.53100
C58         C  0.00111950  0.20684331  0.51243473     0.11000
H59         H  0.05917004  0.22394218  0.62171712     0.15600
H60         H  0.00076012  0.23376318  0.48455057     0.01300
H61         H  0.92667018  0.22340316  0.61220414     0.15900
H62         H  0.99794076  0.18418887  0.55671818     0.15700
C63         C  0.99848547  0.75674997  0.59573237     0.87400
C64         C  0.95877967  0.74453815  0.58822707    -0.52800
C65         C  0.95877992  0.73643576  0.54564560     0.10400
C66         C  0.99887067  0.74100211  0.51431788     0.21300
C67         C  0.03972226  0.74508806  0.58723949    -0.53500
C68         C  0.03961730  0.73684654  0.54458852     0.10500
C69         C  0.99768740  0.76896127  0.55314688    -0.53100
C70         C  0.99800493  0.76082528  0.51038201     0.11000
H71         H  0.93324024  0.74226738  0.61471998     0.15600
H72         H  0.99904653  0.73408036  0.48009234     0.01300
H73         H  0.06628646  0.74295569  0.61223038     0.15900
H74         H  0.99532479  0.78286699  0.55702980     0.15700
N75         N  0.00446854  0.12190886  0.95829640    -0.26300
N76         N  0.00962453  0.13649901  0.98167001    -0.34200
C77         C  0.01078211  0.14967085  0.95098044     0.02000
C78         C  0.00579985  0.14312317  0.90577283     0.08000
C79         C  0.00209782  0.12540019  0.91201413    -0.05100
H80         H  0.01529228  0.16298379  0.96130565     0.08700
H81         H  0.99722180  0.11571970  0.88508162     0.09900
Cu82       Cu  0.01261644  0.13787854  0.05437195     0.44200
Cu83       Cu  0.00017113  0.09809435  0.99104275     0.42000
Cu84       Cu  0.99898484  0.09783525  0.11914226     0.43900
N85         N  0.00861833  0.13649303  0.12703466    -0.33700
N86         N  0.00279037  0.12197738  0.15066820    -0.28000
C87         C  0.99981996  0.12565406  0.19684724    -0.04100
C88         C  0.00393066  0.14335998  0.20259870     0.08100
C89         C  0.00973181  0.14976830  0.15751136     0.01900
H90         H  0.99563628  0.11606079  0.22413094     0.09600
H91         H  0.01362650  0.16314152  0.14739227     0.08700
N92         N  0.99639791  0.07570778  0.07794780    -0.35200
N93         N  0.99680349  0.07589575  0.03143284    -0.27400
C94         C  0.99475343  0.05960549  0.01537848    -0.02600
C95         C  0.99317978  0.04849445  0.05357805     0.06000
C96         C  0.99412360  0.05924252  0.09269910     0.04100
H97         H  0.99365179  0.05627331  0.97844929     0.09200
H98         H  0.99367844  0.05541661  0.12931938     0.08100
N99         N  0.97667044  0.84502459  0.95405516    -0.26300
N100        N  0.97597896  0.83030790  0.97747201    -0.34200
C101        C  0.97365135  0.81716333  0.94671923     0.02000
C102        C  0.97266118  0.82383349  0.90142814     0.08000
C103        C  0.97472815  0.84160730  0.90765382    -0.05100
H104        H  0.97441961  0.80374211  0.95697604     0.08700
H105        H  0.97521170  0.85139269  0.88054774     0.09900
Cu106      Cu  0.97997518  0.82840715  0.05008425     0.44200
Cu107      Cu  0.98134236  0.86897889  0.98650138     0.42000
Cu108      Cu  0.98129323  0.86818510  0.11460971     0.43900
N109        N  0.98371923  0.82959158  0.12282658    -0.33700
N110        N  0.98384804  0.84427356  0.14645388    -0.28000
C111        C  0.98549174  0.84086936  0.19275048    -0.04100
C112        C  0.98654914  0.82312977  0.19876801     0.08100
C113        C  0.98535391  0.81640028  0.15349972     0.01900
H114        H  0.98597663  0.85064875  0.21996591     0.09600
H115        H  0.98445057  0.80295141  0.14339186     0.08700
N116        N  0.98139854  0.89052710  0.07508375    -0.35200
N117        N  0.98234200  0.89089353  0.02859168    -0.27400
C118        C  0.98295353  0.90742528  0.01435247    -0.02600
C119        C  0.98235550  0.91802189  0.05377778     0.06000
C120        C  0.98116694  0.90676530  0.09164876     0.04100
H121        H  0.98405328  0.91138404  0.97785229     0.09200
H122        H  0.97951549  0.90997140  0.12865402     0.08100
C123        C  0.00319362  0.00164126  0.01470226    -0.27300
C124        C  0.98580925  0.99286076  0.05389469     0.06400
C125        C  0.97085861  0.00252745  0.09286067     0.26000
C126        C  0.97351443  0.02053691  0.09243771    -0.11700
C127        C  0.99062609  0.02934913  0.05309334    -0.25700
C128        C  0.00532037  0.01964991  0.01397914     0.36800
C129        C  0.98407449  0.97369064  0.05410884     0.06400
F130        F  0.95267474  0.99462031  0.13098586    -0.19500
H131        H  0.96137857  0.02758426  0.12281441     0.16200
F132        F  0.02308859  0.02739501  0.97545564    -0.23200
H133        H  0.01594876  0.99452363  0.98469976     0.18000
C134        C  0.96890874  0.96444803  0.01460062     0.26000
C135        C  0.96841523  0.94642353  0.01495439    -0.11700
C136        C  0.98264272  0.93717281  0.05468007    -0.25700
C137        C  0.99746387  0.94643815  0.09438701     0.36900
C138        C  0.99840448  0.96446468  0.09379595    -0.27400
F139        F  0.95364894  0.97280565  0.97590659    -0.19500
H140        H  0.95621483  0.93972972  0.98411637     0.16200
F141        F  0.01251508  0.93822086  0.13334042    -0.23200
H142        H  0.01123645  0.97122582  0.12426463     0.18000
C143        C  0.95108568  0.78537239  0.69418094    -0.27300
C144        C  0.98539396  0.78543796  0.72728545     0.06400
C145        C  0.02465691  0.77622157  0.71799980     0.26000
C146        C  0.02938188  0.76690627  0.67602131    -0.11700
C147        C  0.99489190  0.76661713  0.64234785    -0.25700
C148        C  0.95572624  0.77619314  0.65209458     0.36800
C149        C  0.98037393  0.79540304  0.77117903     0.06400
F150        F  0.05862645  0.77640175  0.74943612    -0.19500
H151        H  0.06053552  0.76026600  0.67036560     0.16200
F152        F  0.92170066  0.77667484  0.62074139    -0.23200
H153        H  0.92069164  0.79254178  0.70089254     0.18000
C154        C  0.99240412  0.81286684  0.77273876     0.26000
C155        C  0.98897623  0.82211029  0.81491321    -0.11700
C156        C  0.97329588  0.81409808  0.85624697    -0.25700
C157        C  0.95969974  0.79666713  0.85387571     0.36900
C158        C  0.96357349  0.78743061  0.81171132    -0.27400
F159        F  0.00808738  0.82088178  0.73357289    -0.19500
H160        H  0.99964166  0.83544677  0.81527480     0.16200
F161        F  0.94195198  0.78853627  0.89181797    -0.23200
H162        H  0.95347055  0.77401099  0.81063459     0.18000
C163        C  0.01271729  0.79492073  0.41499753    -0.27300
C164        C  0.99029082  0.78728158  0.37711453     0.06400
C165        C  0.97065816  0.77098230  0.38306513     0.26000
C166        C  0.97298026  0.76260176  0.42652342    -0.11700
C167        C  0.99567307  0.77013225  0.46460472    -0.25700
C168        C  0.01588651  0.78641409  0.45821594     0.36800
C169        C  0.98826509  0.79626045  0.33129591     0.06400
F170        F  0.94846075  0.76333507  0.34709132    -0.19500
H171        H  0.95631814  0.75028820  0.43040076     0.16200
F172        F  0.04010856  0.79389759  0.49293051    -0.23200
H173        H  0.02870327  0.80736989  0.41070782     0.18000
C174        C  0.97007865  0.81291026  0.32798915     0.26000
C175        C  0.96949198  0.82148015  0.28476734    -0.11700
C176        C  0.98706482  0.81364553  0.24405163    -0.25700
C177        C  0.00516159  0.79691013  0.24747508     0.36900
C178        C  0.00554334  0.78832623  0.29074547    -0.27400
F179        F  0.95219672  0.82075422  0.36642395    -0.19500
H180        H  0.95477996  0.83423055  0.28317009     0.16200
F181        F  0.02398080  0.78904596  0.20961780    -0.23200
H182        H  0.02022288  0.77556851  0.29285793     0.18000
C183        C  0.03522529  0.18029804  0.69775300    -0.27300
C184        C  0.99865663  0.18011892  0.72858147     0.06400
C185        C  0.96004464  0.18926860  0.71639815     0.26000
C186        C  0.95838344  0.19870048  0.67454953    -0.11700
C187        C  0.99540414  0.19939639  0.64375258    -0.25700
C188        C  0.03369361  0.18972855  0.65580985     0.36800
C189        C  0.00097191  0.17061519  0.77372599     0.06400
F190        F  0.92343320  0.18877165  0.74461968    -0.19500
H191        H  0.92738119  0.20511078  0.66682652     0.16200
F192        F  0.06994325  0.18949246  0.62705078    -0.23200
H193        H  0.06533087  0.17328197  0.70651575     0.18000
C194        C  0.01112472  0.15292784  0.77482851     0.26000
C195        C  0.01267405  0.14413128  0.81778751    -0.11700
C196        C  0.00427842  0.15278141  0.86053535    -0.25700
C197        C  0.99401959  0.17055139  0.85913555     0.36900
C198        C  0.99248781  0.17929300  0.81616254    -0.27400
F199        F  0.01847381  0.14407237  0.73427561    -0.19500
H200        H  0.02073880  0.13051542  0.81742096     0.16200
F201        F  0.98415082  0.17950687  0.89885997    -0.23200
H202        H  0.98460125  0.19294410  0.81598348     0.18000
C203        C  0.02619402  0.17386742  0.41635067    -0.27300
C204        C  0.00504932  0.18134279  0.37752504     0.06400
C205        C  0.98394785  0.19738855  0.38257875     0.26000
C206        C  0.98282230  0.20556650  0.42646462    -0.11700
C207        C  0.00360832  0.19807413  0.46579685    -0.25700
C208        C  0.02617253  0.18222464  0.45996993     0.36800
C209        C  0.00395804  0.17201298  0.33230048     0.06400
F210        F  0.96330403  0.20487544  0.34538669    -0.19500
H211        H  0.96467474  0.21758238  0.42971184     0.16200
F212        F  0.04917634  0.17495021  0.49588025    -0.23200
H213        H  0.04310451  0.16157726  0.41267407     0.18000
C214        C  0.02753153  0.17815490  0.29300197     0.26000
C215        C  0.02706632  0.16885374  0.25076843    -0.11700
C216        C  0.00299742  0.15332761  0.24712110    -0.25700
C217        C  0.97847300  0.14748124  0.28635823     0.36900
C218        C  0.97935683  0.15670493  0.32863534    -0.27400
F219        F  0.05184101  0.19289243  0.29589908    -0.19500
H220        H  0.04628431  0.17363675  0.22119907     0.16200
F221        F  0.95261337  0.13315226  0.28364088    -0.23200
H222        H  0.96047698  0.15198850  0.35855360     0.18000
C223        C  0.79116995  0.28062223  0.47283103    -0.27300
C224        C  0.82553323  0.28264348  0.50574068     0.06400
C225        C  0.83038570  0.29850044  0.52916134     0.26000
C226        C  0.80206249  0.31225079  0.51877614    -0.11700
C227        C  0.76860886  0.31051492  0.48458041    -0.25700
C228        C  0.76298207  0.29446181  0.46206690     0.36800
C229        C  0.85812541  0.26865836  0.51358017     0.06400
F230        F  0.86278294  0.30069280  0.56188381    -0.19500
H231        H  0.80659485  0.32438100  0.53717677     0.16200
F232        F  0.73188550  0.29241868  0.42794389    -0.23200
H233        H  0.78729245  0.26851056  0.45417950     0.18000
C234        C  0.84476024  0.25243401  0.53051055     0.26000
C235        C  0.87672120  0.23977024  0.54017502    -0.11700
C236        C  0.92233384  0.24306805  0.53271901    -0.25700
C237        C  0.93537317  0.25919933  0.51464318     0.36900
C238        C  0.90348543  0.27182316  0.50524028    -0.27400
F239        F  0.80110434  0.24909307  0.53934682    -0.19500
H240        H  0.86588403  0.22742451  0.55395242     0.16200
F241        F  0.97902415  0.26319796  0.50844023    -0.23200
H242        H  0.91428462  0.28426666  0.49205789     0.18000
C243        C  0.85443798  0.42679137  0.40372783    -0.27300
C244        C  0.84023593  0.41933846  0.44620020     0.06400
C245        C  0.85716626  0.42583336  0.48885245     0.26000
C246        C  0.88824394  0.43929858  0.48863803    -0.11700
C247        C  0.90345800  0.44644108  0.44600952    -0.25700
C248        C  0.88562838  0.44016608  0.40342558     0.36800
C249        C  0.81075758  0.40395315  0.44531319     0.06400
F250        F  0.84557177  0.41857620  0.53060892    -0.19500
H251        H  0.90133315  0.44380360  0.52196944     0.16200
F252        F  0.89873398  0.44669595  0.36127219    -0.23200
H253        H  0.84173941  0.42204423  0.37046080     0.18000
C254        C  0.77295815  0.40269420  0.47464464     0.26000
C255        C  0.74797068  0.38743882  0.47583818    -0.11700
C256        C  0.76017697  0.37327034  0.44774255    -0.25700
C257        C  0.79646129  0.37486227  0.41662734     0.36900
C258        C  0.82147310  0.39005009  0.41552913    -0.27400
F259        F  0.76021971  0.41617049  0.50214598    -0.19500
H260        H  0.71991334  0.38648496  0.49980059     0.16200
F261        F  0.80797824  0.36163826  0.38762950    -0.23200
H262        H  0.85014977  0.39075148  0.39233129     0.18000
C263        C  0.82931752  0.67709266  0.45241059    -0.27300
C264        C  0.82649184  0.68555967  0.49603521     0.06400
C265        C  0.79246937  0.68089508  0.52782429     0.26000
C266        C  0.76289221  0.66753478  0.51662581    -0.11700
C267        C  0.76713145  0.65857875  0.47385752    -0.25700
C268        C  0.80009448  0.66367431  0.44144017     0.36800
C269        C  0.86026414  0.69871053  0.50861727     0.06400
F270        F  0.78935162  0.68859346  0.57066628    -0.19500
H271        H  0.73798225  0.66365626  0.54217757     0.16200
F272        F  0.80439735  0.65548847  0.39938362    -0.23200
H273        H  0.85471783  0.68070452  0.42710318     0.18000
C274        C  0.90602865  0.69498215  0.50429965     0.26000
C275        C  0.93782609  0.70745703  0.51561842    -0.11700
C276        C  0.92456355  0.72370037  0.53221231    -0.25700
C277        C  0.87892377  0.72746503  0.53683272     0.36900
C278        C  0.84703197  0.71505918  0.52489797    -0.27400
F279        F  0.92002367  0.67909305  0.49049880    -0.19500
H280        H  0.97287478  0.70428949  0.51256569     0.16200
F281        F  0.86522621  0.74324370  0.55187893    -0.23200
H282        H  0.81201731  0.71825185  0.52795884     0.18000
C283        C  0.77566222  0.56575586  0.46689231    -0.27300
C284        C  0.81471807  0.56521233  0.43949100     0.06400
C285        C  0.82641397  0.57974163  0.41249473     0.26000
C286        C  0.80019560  0.59465262  0.41410812    -0.11700
C287        C  0.76184890  0.59542724  0.44267641    -0.25700
C288        C  0.74944493  0.58069884  0.46861181     0.36800
C289        C  0.84429445  0.54985020  0.44081092     0.06400
F290        F  0.86439459  0.57983529  0.38634686    -0.19500
H291        H  0.81044587  0.60578522  0.39374340     0.16200
F292        F  0.71345593  0.58103255  0.49769738    -0.23200
H293        H  0.76593809  0.55467951  0.48775592     0.18000
C294        C  0.86005543  0.54336978  0.48388651     0.26000
C295        C  0.89048762  0.52967292  0.48462980    -0.11700
C296        C  0.90569643  0.52207525  0.44251833    -0.25700
C297        C  0.88860919  0.52824199  0.39944923     0.36900
C298        C  0.85844188  0.54201056  0.39879535    -0.27400
F299        F  0.84743229  0.55074018  0.52521658    -0.19500
H300        H  0.90276425  0.52522650  0.51831726     0.16200
F301        F  0.90122536  0.52114089  0.35777644    -0.23200
H302        H  0.84621820  0.54664608  0.36526031     0.18000
C303        C  0.45239191  0.64155836  0.43339338    -0.27300
C304        C  0.47565299  0.62950952  0.46071242     0.06400
C305        C  0.45159397  0.61763747  0.48817539     0.26000
C306        C  0.40489886  0.61764993  0.48745564    -0.11700
C307        C  0.38140525  0.62965732  0.45988098    -0.25700
C308        C  0.40572523  0.64175674  0.43315755     0.36800
C309        C  0.52498843  0.62924642  0.45976782     0.06400
F310        F  0.47330031  0.60577918  0.51474240    -0.19500
H311        H  0.38700955  0.60825897  0.50851075     0.16200
F312        F  0.38445832  0.65337078  0.40545061    -0.23200
H313        H  0.47051444  0.65079756  0.41205485     0.18000
C314        C  0.54806923  0.62421945  0.41884315     0.26000
C315        C  0.59474538  0.62390542  0.41825747    -0.11700
C316        C  0.61906422  0.62897004  0.45810210    -0.25700
C317        C  0.59592755  0.63422749  0.49882825     0.36900
C318        C  0.54923254  0.63417369  0.49973607    -0.27400
F319        F  0.52539295  0.61937673  0.37973417    -0.19500
H320        H  0.61199998  0.61984783  0.38656112     0.16200
F321        F  0.61852359  0.63903751  0.53801549    -0.23200
H322        H  0.53190875  0.63811399  0.53149665     0.18000
C323        C  0.11811952  0.69849237  0.54583321    -0.27300
C324        C  0.13817258  0.69954618  0.50114073     0.06400
C325        C  0.12481416  0.71277291  0.47031017     0.26000
C326        C  0.09284050  0.72491488  0.48467481    -0.11700
C327        C  0.07382787  0.72407958  0.52989713    -0.25700
C328        C  0.08620305  0.71057458  0.56009286     0.36800
C329        C  0.17228141  0.68656016  0.48726338     0.06400
F330        F  0.14333035  0.71418161  0.42680447    -0.19500
H331        H  0.08329941  0.73511591  0.46069944     0.16200
F332        F  0.06620845  0.70867069  0.60271536    -0.23200
H333        H  0.12678927  0.68810177  0.56956386     0.18000
C334        C  0.20845299  0.68293066  0.51708911     0.26000
C335        C  0.23790857  0.66945905  0.50648096    -0.11700
C336        C  0.23176327  0.65928018  0.46611315    -0.25700
C337        C  0.19678068  0.66339999  0.43513583     0.36900
C338        C  0.16740664  0.67693781  0.44565632    -0.27400
F339        F  0.21491329  0.69228151  0.55692201    -0.19500
H340        H  0.26453361  0.66653510  0.53084982     0.16200
F341        F  0.19065616  0.65416560  0.39502872    -0.23200
H342        H  0.13985058  0.67949118  0.42214630     0.18000
C343        C  0.14796762  0.54113920  0.40055792    -0.27300
C344        C  0.15953870  0.54956265  0.44254955     0.06400
C345        C  0.14043603  0.54385731  0.48512119     0.26000
C346        C  0.11052137  0.53001935  0.48541075    -0.11700
C347        C  0.09835989  0.52173255  0.44331674    -0.25700
C348        C  0.11767440  0.52742729  0.40071495     0.36800
C349        C  0.18913972  0.56493228  0.44123438     0.06400
F350        F  0.14889322  0.55218572  0.52619037    -0.19500
H351        H  0.09590062  0.52610563  0.51867701     0.16200
F352        F  0.10702240  0.51994895  0.35901458    -0.23200
H353        H  0.16219161  0.54531406  0.36732569     0.18000
C354        C  0.22491332  0.56676749  0.47278928     0.26000
C355        C  0.25000893  0.58198781  0.47344910    -0.11700
C356        C  0.24009436  0.59558964  0.44256721    -0.25700
C357        C  0.20592095  0.59338087  0.40932328     0.36900
C358        C  0.18071763  0.57821242  0.40880307    -0.27400
F359        F  0.23560385  0.55387302  0.50301688    -0.19500
H360        H  0.27636596  0.58336327  0.49913661     0.16200
F361        F  0.19671702  0.60594272  0.37752585    -0.23200
H362        H  0.15367696  0.57704922  0.38383945     0.18000
C363        C  0.45208573  0.33836750  0.42026631    -0.27300
C364        C  0.47697112  0.33411200  0.46028294     0.06400
C365        C  0.45458409  0.33022683  0.50256361     0.26000
C366        C  0.40796087  0.33105831  0.50493264    -0.11700
C367        C  0.38318101  0.33608194  0.46541232    -0.25700
C368        C  0.40558274  0.33947245  0.42282268     0.36800
C369        C  0.52618350  0.33523725  0.45884747     0.06400
F370        F  0.47795087  0.32585544  0.54161539    -0.19500
H371        H  0.39125835  0.32830643  0.53795238     0.16200
F372        F  0.38239555  0.34395900  0.38377376    -0.23200
H373        H  0.46882876  0.34142733  0.38746830     0.18000
C374        C  0.55175958  0.32434696  0.42974972     0.26000
C375        C  0.59835135  0.32571138  0.42935709    -0.11700
C376        C  0.61988844  0.33823031  0.45700974    -0.25700
C377        C  0.59406360  0.34935508  0.48518732     0.36900
C378        C  0.54771272  0.34773313  0.48632701    -0.27400
F379        F  0.53175202  0.31224327  0.40246216    -0.19500
H380        H  0.61767698  0.31707062  0.40726257     0.16200
F381        F  0.61374020  0.36148556  0.51265345    -0.23200
H382        H  0.52842133  0.35634246  0.50854541     0.18000
C383        C  0.11717973  0.26885445  0.56626240    -0.27300
C384        C  0.13394311  0.27079194  0.52032635     0.06400
C385        C  0.11875178  0.25952016  0.48492940     0.26000
C386        C  0.08780962  0.24654359  0.49569133    -0.11700
C387        C  0.07107401  0.24464163  0.54171543    -0.25700
C388        C  0.08573232  0.25613164  0.57682616     0.36800
C389        C  0.16654143  0.28478006  0.50993153     0.06400
F390        F  0.13277869  0.26134662  0.43971557    -0.19500
H391        H  0.07699471  0.23795086  0.46788769     0.16200
F392        F  0.06844863  0.25559058  0.62101259    -0.23200
H393        H  0.12833627  0.27731501  0.59421923     0.18000
C394        C  0.15907362  0.30163759  0.52655301     0.26000
C395        C  0.19034735  0.31462155  0.51829519    -0.11700
C396        C  0.22931714  0.31137162  0.49197641    -0.25700
C397        C  0.23682215  0.29448277  0.47516518     0.36900
C398        C  0.20580883  0.28134154  0.48436063    -0.27400
F399        F  0.12084443  0.30574014  0.54973433    -0.19500
H400        H  0.18368002  0.32736816  0.53227449     0.16200
F401        F  0.27318479  0.29073543  0.44849180    -0.23200
H402        H  0.21253939  0.26843896  0.47151712     0.18000
C403        C  0.15155445  0.42697481  0.40451311    -0.27300
C404        C  0.16134475  0.41805633  0.44619874     0.06400
C405        C  0.13945653  0.42299121  0.48805303     0.26000
C406        C  0.10833454  0.43648030  0.48790562    -0.11700
C407        C  0.09801770  0.44527973  0.44605213    -0.25700
C408        C  0.12027614  0.44038837  0.40423701     0.36800
C409        C  0.19295174  0.40322797  0.44561197     0.06400
F410        F  0.14688381  0.41433837  0.52880443    -0.19500
H411        H  0.09162617  0.43980890  0.52056272     0.16200
F412        F  0.11208168  0.44856668  0.36294034    -0.23200
H413        H  0.16824957  0.42353558  0.37192832     0.18000
C414        C  0.18773011  0.38965776  0.41307205     0.26000
C415        C  0.21433155  0.37488133  0.41612260    -0.11700
C416        C  0.24696783  0.37339536  0.45116973    -0.25700
C417        C  0.25410157  0.38733537  0.48193611     0.36900
C418        C  0.22718214  0.40209000  0.47920205    -0.27400
F419        F  0.15509866  0.39017588  0.38013893    -0.19500
H420        H  0.20829804  0.36424710  0.39219279     0.16200
F421        F  0.28505615  0.38623116  0.51653163    -0.23200
H422        H  0.23230731  0.41247405  0.50414816     0.18000
loop_ 
_geom_bond_atom_site_label_1 
_geom_bond_atom_site_label_2 
_geom_bond_distance 
_geom_bond_site_symmetry_2 
_ccdc_geom_bond_type 
C1            C2   1.408       .  A
C1            C6   1.408       .  A
C1          C367   1.482       .  S
C2            C3   1.402       .  A
C2            H7   1.084       .  S
C3            C4   1.400       .  A
C3          C416   1.482       .  S
C4            C5   1.405       .  A
C4            H8   1.083       .  S
C5            C6   1.410       .  A
C5          C396   1.493       .  S
C6            H9   1.083       .  S
C10          C11   1.409       .  A
C10          C15   1.407       .  A
C10         C307   1.489       .  S
C11          C12   1.407       .  A
C11          H16   1.084       .  S
C12          C13   1.403       .  A
C12         C336   1.486       .  S
C13          C14   1.403       .  A
C13          H17   1.084       .  S
C14          C15   1.404       .  A
C14         C356   1.483       .  S
C15          H18   1.084       .  S
C19          C20   1.407       .  A
C19          C24   1.406       .  A
C19         C316   1.482       .  S
C20          C21   1.407       .  A
C20          H25   1.083       .  S
C21          C22   1.403       .  A
C21         C287   1.487       .  S
C22          C23   1.401       .  A
C22          H26   1.084       .  S
C23          C24   1.404       .  A
C23         C267   1.479       .  S
C24          H27   1.084       .  S
O28         Cu36   2.003       .  S
O28          C38   1.277       .  A
O29         Cu36   2.002   1_655  S
O29          C39   1.277       .  A
O30         Cu36   2.006   1_655  S
O30          C40   1.277       .  A
O31         Cu36   2.009       .  S
O31          C41   1.278       .  A
O32         Cu37   2.026       .  S
O32          C41   1.281       .  A
O33         Cu37   2.022   1_655  S
O33          C40   1.280       .  A
O34         Cu37   2.013   1_655  S
O34          C39   1.279       .  A
O35         Cu37   2.015       .  S
O35          C38   1.279       .  A
Cu36        Cu37   2.367       .  S
C38         C347   1.485       .  S
C39         C247   1.485       .  S
C40         C296   1.489       .  S
C41         C407   1.490       .  S
C42          C43   1.406       .  A
C42          C47   1.406       .  A
C42         C376   1.482       .  S
C43          C44   1.402       .  A
C43          H48   1.084       .  S
C44          C45   1.402       .  A
C44         C256   1.480       .  S
C45          C46   1.403       .  A
C45          H49   1.084       .  S
C46          C47   1.405       .  A
C46         C227   1.484       .  S
C47          H50   1.084       .  S
C51          C52   1.541   1_655  S
C51          C57   1.534       .  S
C51          C55   1.546       .  S
C51         C187   1.534       .  S
C52          H59   1.085       .  S
C52          C53   1.368       .  D
C53          C54   1.536   1_455  S
C53         C387   1.490       .  S
C54          C58   1.540   1_655  S
C54          C56   1.537       .  S
C54          H60   1.108   1_655  S
C55          H61   1.082       .  S
C55          C56   1.365       .  D
C56         C236   1.484       .  S
C57          H62   1.085       .  S
C57          C58   1.368   1_655  D
C58         C207   1.490       .  S
C63          C64   1.537       .  S
C63          C69   1.537       .  S
C63          C67   1.550   1_655  S
C63         C147   1.532       .  S
C64          H71   1.086       .  S
C64          C65   1.362       .  D
C65          C66   1.535       .  S
C65         C276   1.475       .  S
C66          C70   1.540       .  S
C66          C68   1.532   1_655  S
C66          H72   1.110       .  S
C67          H73   1.082       .  S
C67          C68   1.369       .  D
C68         C327   1.484       .  S
C69          H74   1.085       .  S
C69          C70   1.368       .  D
C70         C167   1.489       .  S
N75          N76   1.320       .  A
N75          C79   1.345       .  A
N75         Cu83   2.071       .  S
N76          C77   1.343       .  A
N76         Cu82   2.070   1_556  S
C77          C78   1.389       .  A
C77          H80   1.081       .  S
C78          C79   1.389       .  A
C78         C196   1.489       .  S
C79          H81   1.081   1_455  S
Cu82         N85   2.070       .  S
Cu83         N93   2.071   1_456  S
Cu84         N86   2.076   1_655  S
Cu84         N92   2.076       .  S
N85          N86   1.322       .  A
N85          C89   1.344       .  A
N86          C87   1.345   1_455  A
C87          C88   1.387   1_655  A
C87          H90   1.081       .  S
C88          C89   1.385       .  A
C88         C216   1.481       .  S
C89          H91   1.082       .  S
N92          N93   1.321       .  A
N92          C96   1.345       .  A
N93          C94   1.343       .  A
C94          C95   1.387       .  A
C94          H97   1.081   1_554  S
C95          C96   1.388       .  A
C95         C127   1.485       .  S
C96          H98   1.082       .  S
N99         N100   1.321       .  A
N99         C103   1.346       .  A
N99        Cu107   2.076       .  S
N100        C101   1.343       .  A
N100       Cu106   2.072   1_556  S
C101        C102   1.387       .  A
C101        H104   1.080       .  S
C102        C103   1.390       .  A
C102        C156   1.488       .  S
C103        H105   1.081       .  S
Cu106       N109   2.072       .  S
Cu107       N117   2.076   1_556  S
Cu108       N110   2.064       .  S
Cu108       N116   2.064       .  S
N109        N110   1.320       .  A
N109        C113   1.345       .  A
N110        C111   1.343       .  A
C111        C112   1.386       .  A
C111        H114   1.082       .  S
C112        C113   1.388       .  A
C112        C176   1.482       .  S
C113        H115   1.081       .  S
N116        N117   1.321       .  A
N116        C120   1.343       .  A
N117        C118   1.344       .  A
C118        C119   1.388       .  A
C118        H121   1.082   1_554  S
C119        C120   1.386       .  A
C119        C136   1.484       .  S
C120        H122   1.081       .  S
C123        C124   1.404   1_445  A
C123        C128   1.397       .  A
C123        H133   1.083   1_544  S
C124        C125   1.408   1_565  A
C124        C129   1.486       .  S
C125        C126   1.398       .  A
C125        F130   1.357   1_545  S
C126        C127   1.406       .  A
C126        H131   1.082       .  S
C127        C128   1.410   1_655  A
C128        F132   1.356   1_554  S
C129        C134   1.408       .  A
C129        C138   1.404       .  A
C134        C135   1.397       .  A
C134        F139   1.357   1_554  S
C135        C136   1.405       .  A
C135        H140   1.082   1_554  S
C136        C137   1.410       .  A
C137        C138   1.397       .  A
C137        F141   1.356   1_655  S
C138        H142   1.083   1_655  S
C143        C144   1.397       .  A
C143        C148   1.397       .  A
C143        H153   1.084       .  S
C144        C145   1.401   1_655  A
C144        C149   1.473       .  S
C145        C146   1.400       .  A
C145        F150   1.358       .  S
C146        C147   1.412   1_455  A
C146        H151   1.078       .  S
C147        C148   1.416       .  A
C148        F152   1.358       .  S
C149        C154   1.401       .  A
C149        C158   1.399       .  A
C154        C155   1.398       .  A
C154        F159   1.357   1_655  S
C155        C156   1.408       .  A
C155        H160   1.082       .  S
C156        C157   1.412       .  A
C157        C158   1.399       .  A
C157        F161   1.356       .  S
C158        H162   1.083       .  S
C163        C164   1.402   1_455  A
C163        C168   1.398       .  A
C163        H173   1.084       .  S
C164        C165   1.404       .  A
C164        C169   1.478       .  S
C165        C166   1.397       .  A
C165        F170   1.357       .  S
C166        C167   1.407       .  A
C166        H171   1.083       .  S
C167        C168   1.411   1_655  A
C168        F172   1.357       .  S
C169        C174   1.404       .  A
C169        C178   1.402   1_655  A
C174        C175   1.397       .  A
C174        F179   1.358       .  S
C175        C176   1.406       .  A
C175        H180   1.083       .  S
C176        C177   1.409   1_655  A
C177        C178   1.398       .  A
C177        F181   1.356       .  S
C178        H182   1.084       .  S
C183        C184   1.401   1_455  A
C183        C188   1.399       .  A
C183        H193   1.084       .  S
C184        C185   1.403       .  A
C184        C189   1.481   1_655  S
C185        C186   1.397       .  A
C185        F190   1.358       .  S
C186        C187   1.412       .  A
C186        H191   1.078       .  S
C187        C188   1.415   1_655  A
C188        F192   1.358       .  S
C189        C194   1.404       .  A
C189        C198   1.402   1_455  A
C194        C195   1.399       .  A
C194        F199   1.357       .  S
C195        C196   1.408       .  A
C195        H200   1.082       .  S
C196        C197   1.411   1_455  A
C197        C198   1.398       .  A
C197        F201   1.356       .  S
C198        H202   1.084       .  S
C203        C204   1.400       .  A
C203        C208   1.397       .  A
C203        H213   1.084       .  S
C204        C205   1.402   1_455  A
C204        C209   1.474       .  S
C205        C206   1.398       .  A
C205        F210   1.357       .  S
C206        C207   1.407   1_655  A
C206        H211   1.082       .  S
C207        C208   1.411       .  A
C208        F212   1.357       .  S
C209        C214   1.403       .  A
C209        C218   1.401   1_455  A
C214        C215   1.399       .  A
C214        F219   1.357       .  S
C215        C216   1.407       .  A
C215        H220   1.083       .  S
C216        C217   1.408   1_455  A
C217        C218   1.397       .  A
C217        F221   1.357       .  S
C218        H222   1.083       .  S
C223        C224   1.403       .  A
C223        C228   1.400       .  A
C223        H233   1.084       .  S
C224        C225   1.404       .  A
C224        C229   1.477       .  S
C225        C226   1.395       .  A
C225        F230   1.358       .  S
C226        C227   1.406       .  A
C226        H231   1.084       .  S
C227        C228   1.408       .  A
C228        F232   1.357       .  S
C229        C234   1.404       .  A
C229        C238   1.402       .  A
C234        C235   1.400       .  A
C234        F239   1.357       .  S
C235        C236   1.407       .  A
C235        H240   1.083       .  S
C236        C237   1.407       .  A
C237        C238   1.395       .  A
C237        F241   1.357       .  S
C238        H242   1.084       .  S
C243        C244   1.403       .  A
C243        C248   1.396       .  A
C243        H253   1.084       .  S
C244        C245   1.408       .  A
C244        C249   1.485       .  S
C245        C246   1.399       .  A
C245        F250   1.357       .  S
C246        C247   1.406       .  A
C246        H251   1.084       .  S
C247        C248   1.410       .  A
C248        F252   1.357       .  S
C249        C254   1.408       .  A
C249        C258   1.405       .  A
C254        C255   1.400       .  A
C254        F259   1.357       .  S
C255        C256   1.404       .  A
C255        H260   1.083       .  S
C256        C257   1.405       .  A
C257        C258   1.396       .  A
C257        F261   1.358       .  S
C258        H262   1.083       .  S
C263        C264   1.404       .  A
C263        C268   1.396       .  A
C263        H273   1.083       .  S
C264        C265   1.408       .  A
C264        C269   1.481       .  S
C265        C266   1.401       .  A
C265        F270   1.358       .  S
C266        C267   1.404       .  A
C266        H271   1.083       .  S
C267        C268   1.406       .  A
C268        F272   1.358       .  S
C269        C274   1.408       .  A
C269        C278   1.405       .  A
C274        C275   1.396       .  A
C274        F279   1.358       .  S
C275        C276   1.400       .  A
C275        H280   1.083       .  S
C276        C277   1.405       .  A
C277        C278   1.399       .  A
C277        F281   1.358       .  S
C278        H282   1.082       .  S
C283        C284   1.405       .  A
C283        C288   1.400       .  A
C283        H293   1.083       .  S
C284        C285   1.407       .  A
C284        C289   1.485       .  S
C285        C286   1.398       .  A
C285        F290   1.358       .  S
C286        C287   1.406       .  A
C286        H291   1.083       .  S
C287        C288   1.408       .  A
C288        F292   1.357       .  S
C289        C294   1.407       .  A
C289        C298   1.403       .  A
C294        C295   1.400       .  A
C294        F299   1.357       .  S
C295        C296   1.407       .  A
C295        H300   1.083       .  S
C296        C297   1.412       .  A
C297        C298   1.399       .  A
C297        F301   1.357       .  S
C298        H302   1.084       .  S
C303        C304   1.402       .  A
C303        C308   1.400       .  A
C303        H313   1.083       .  S
C304        C305   1.405       .  A
C304        C309   1.480       .  S
C305        C306   1.401       .  A
C305        F310   1.358       .  S
C306        C307   1.408       .  A
C306        H311   1.083       .  S
C307        C308   1.409       .  A
C308        F312   1.357       .  S
C309        C314   1.405       .  A
C309        C318   1.403       .  A
C314        C315   1.400       .  A
C314        F319   1.357       .  S
C315        C316   1.404       .  A
C315        H320   1.083       .  S
C316        C317   1.407       .  A
C317        C318   1.401       .  A
C317        F321   1.357       .  S
C318        H322   1.083       .  S
C323        C324   1.405       .  A
C323        C328   1.397       .  A
C323        H333   1.083       .  S
C324        C325   1.408       .  A
C324        C329   1.487       .  S
C325        C326   1.403       .  A
C325        F330   1.357       .  S
C326        C327   1.405       .  A
C326        H331   1.083       .  S
C327        C328   1.405       .  A
C328        F332   1.357       .  S
C329        C334   1.408       .  A
C329        C338   1.405       .  A
C334        C335   1.399       .  A
C334        F339   1.357       .  S
C335        C336   1.404       .  A
C335        H340   1.083       .  S
C336        C337   1.409       .  A
C337        C338   1.401       .  A
C337        F341   1.358       .  S
C338        H342   1.083       .  S
C343        C344   1.404       .  A
C343        C348   1.398       .  A
C343        H353   1.084       .  S
C344        C345   1.408       .  A
C344        C349   1.486       .  S
C345        C346   1.398       .  A
C345        F350   1.357       .  S
C346        C347   1.406       .  A
C346        H351   1.084       .  S
C347        C348   1.411       .  A
C348        F352   1.357       .  S
C349        C354   1.408       .  A
C349        C358   1.405       .  A
C354        C355   1.399       .  A
C354        F359   1.357       .  S
C355        C356   1.405       .  A
C355        H360   1.083       .  S
C356        C357   1.407       .  A
C357        C358   1.398       .  A
C357        F361   1.358       .  S
C358        H362   1.083       .  S
C363        C364   1.402       .  A
C363        C368   1.399       .  A
C363        H373   1.083       .  S
C364        C365   1.407       .  A
C364        C369   1.479       .  S
C365        C366   1.401       .  A
C365        F370   1.358       .  S
C366        C367   1.404       .  A
C366        H371   1.083       .  S
C367        C368   1.407       .  A
C368        F372   1.357       .  S
C369        C374   1.406       .  A
C369        C378   1.402       .  A
C374        C375   1.402       .  A
C374        F379   1.357       .  S
C375        C376   1.406       .  A
C375        H380   1.084       .  S
C376        C377   1.406       .  A
C377        C378   1.396       .  A
C377        F381   1.357       .  S
C378        H382   1.084       .  S
C383        C384   1.405       .  A
C383        C388   1.397       .  A
C383        H393   1.083       .  S
C384        C385   1.408       .  A
C384        C389   1.489       .  S
C385        C386   1.402       .  A
C385        F390   1.358       .  S
C386        C387   1.407       .  A
C386        H391   1.083       .  S
C387        C388   1.408       .  A
C388        F392   1.357       .  S
C389        C394   1.406       .  A
C389        C398   1.407       .  A
C394        C395   1.395       .  A
C394        F399   1.358       .  S
C395        C396   1.408       .  A
C395        H400   1.082       .  S
C396        C397   1.410       .  A
C397        C398   1.403       .  A
C397        F401   1.357       .  S
C398        H402   1.082       .  S
C403        C404   1.404       .  A
C403        C408   1.400       .  A
C403        H413   1.084       .  S
C404        C405   1.408       .  A
C404        C409   1.490       .  S
C405        C406   1.401       .  A
C405        F410   1.358       .  S
C406        C407   1.407       .  A
C406        H411   1.084       .  S
C407        C408   1.412       .  A
C408        F412   1.357       .  S
C409        C414   1.408       .  A
C409        C418   1.407       .  A
C414        C415   1.398       .  A
C414        F419   1.357       .  S
C415        C416   1.404       .  A
C415        H420   1.083       .  S
C416        C417   1.405       .  A
C417        C418   1.402       .  A
C417        F421   1.357       .  S
C418        H422   1.083       .  S
