geometry optimzed in LAMMPS
_audit_creation_date              2020-11-30 
_audit_creation_method            'lammps2cif' 
_symmetry_space_group_name_H-M    'P1' 
_symmetry_Int_Tables_number       1 
_symmetry_cell_setting            triclinic 
loop_ 
_symmetry_equiv_pos_as_xyz 
  x,y,z 
_cell_length_a                    52.3172155 
_cell_length_b                    37.154054679153205 
_cell_length_c                    36.916983453363265 
_cell_angle_alpha                 90.43717946738663 
_cell_angle_beta                  113.34933938241369 
_cell_angle_gamma                 90.17761396328316 
loop_ 
_atom_site_label 
_atom_site_type_symbol 
_atom_site_fract_x 
_atom_site_fract_y 
_atom_site_fract_z 
_atom_site_charge 
C1          C  0.97430508  0.61253139  0.62414569     0.80400
N2          N  0.97443103  0.59358214  0.59255769    -0.77900
C3          C  0.98419722  0.55936801  0.59704928     0.82900
N4          N  0.99397285  0.54417148  0.63319058    -0.77800
C5          C  0.99448280  0.56286421  0.66508115     0.83000
N6          N  0.98455915  0.59702127  0.66029416    -0.79500
In7        In  0.90798493  0.93288675  0.64959211     1.36900
C8          C  0.94044406  0.97252454  0.62487805     0.77800
O9          O  0.91382999  0.97558671  0.69543732    -0.60700
O10         O  0.91858769  0.92142978  0.71367627    -0.51600
C11         C  0.85240190  0.93285360  0.62012540     0.70500
O12         O  0.86638489  0.95790388  0.61370802    -0.46400
C13         C  0.92188137  0.86946483  0.62975226     0.75200
O14         O  0.91424357  0.97209146  0.60755235    -0.58300
O15         O  0.93216099  0.88183452  0.66449616    -0.48400
O16         O  0.94984553  0.95337463  0.65530692    -0.54700
C17         C  0.91928962  0.95401081  0.72368707     0.85300
O18         O  0.86694569  0.90840722  0.64204942    -0.56600
O19         O  0.90401696  0.88933048  0.60505400    -0.59900
C20         C  0.99273482  0.48444596  0.53677763     0.80400
N21         N  0.99335642  0.50409011  0.56818609    -0.77900
C22         C  0.98421675  0.53859074  0.56324096     0.82900
N23         N  0.97506362  0.55358747  0.52693703    -0.77800
C24         C  0.97482663  0.53435445  0.49533348     0.83000
N25         N  0.98353487  0.49969258  0.50060215    -0.79500
In26       In  0.08763213  0.17847855  0.51006816     1.36900
C27         C  0.05911732  0.13684449  0.53914301     0.77800
O28         O  0.08607027  0.22206226  0.55182515    -0.60700
O29         O  0.06679727  0.23138489  0.49020572    -0.51600
C30         C  0.14268358  0.18347581  0.53226480     0.70500
O31         O  0.13165757  0.16503766  0.55083670    -0.46400
C32         C  0.07361277  0.14911367  0.43918466     0.75200
O33         O  0.08536174  0.13640598  0.55213488    -0.58300
O34         O  0.07018201  0.18197519  0.44435916    -0.48400
O35         O  0.04757365  0.15836443  0.51118437    -0.54700
C36         C  0.07256885  0.24335912  0.52455916     0.85300
O37         O  0.12548660  0.20020328  0.50354321    -0.56600
O38         O  0.08384004  0.13099176  0.47030445    -0.59900
C39         C  0.97574382  0.99305334  0.12728618     0.80400
N40         N  0.98772755  0.00943885  0.16307526    -0.77900
C41         C  0.99773559  0.04351906  0.16630726     0.82900
N42         N  0.99571748  0.06158146  0.13348215    -0.77800
C43         C  0.98413587  0.04523780  0.09752363     0.83000
N44         N  0.97446328  0.01084316  0.09461004    -0.79500
In45       In  0.89771265  0.67467792  0.15597977     1.36900
C46         C  0.92923136  0.63532262  0.12940283     0.77800
O47         O  0.90328904  0.71734079  0.11700947    -0.60700
O48         O  0.91338554  0.73030291  0.17715500    -0.51600
C49         C  0.84224458  0.67494895  0.12754226     0.70500
O50         O  0.85572282  0.65083116  0.11870187    -0.46400
C51         C  0.91016496  0.64887671  0.22771704     0.75200
O52         O  0.90467665  0.64418295  0.10772305    -0.58300
O53         O  0.91869064  0.67910889  0.22164973    -0.48400
O54         O  0.93746632  0.64621087  0.16460507    -0.54700
C55         C  0.91265997  0.74047553  0.14430274     0.85300
O56         O  0.85717097  0.69869701  0.15090782    -0.56600
O57         O  0.89562256  0.63158097  0.19680541    -0.59900
C58         C  0.99502246  0.11383881  0.03237856     0.80400
N59         N  0.99397938  0.09769967  0.06476800    -0.77900
C60         C  0.98354722  0.06370459  0.06218695     0.82900
N61         N  0.97406258  0.04584433  0.02706587    -0.77800
C62         C  0.97497189  0.06175004  0.99472229     0.83000
N63         N  0.98539428  0.09558946  0.99748693    -0.79500
In64       In  0.07663997  0.43195493  0.01024278     1.36900
C65         C  0.04804314  0.47489145  0.03872308     0.77800
O66         O  0.07481537  0.47794187  0.97034430    -0.60700
O67         O  0.06084747  0.42688099  0.94439137    -0.51600
C68         C  0.13188499  0.42871977  0.03471196     0.70500
O69         O  0.11979979  0.45085638  0.04850798    -0.46400
C70         C  0.05943215  0.36803492  0.02462191     0.75200
O71         O  0.07406438  0.47115450  0.05549787    -0.58300
O72         O  0.05071057  0.38182804  0.99084152    -0.48400
O73         O  0.03688367  0.45612114  0.00780735    -0.54700
C74         C  0.06438014  0.45967738  0.93898525     0.85300
O75         O  0.11557386  0.40746169  0.00912047    -0.56600
O76         O  0.07763227  0.38660556  0.05122677    -0.59900
C77         C  0.47535945  0.10307249  0.11742246     0.80400
N78         N  0.48311929  0.08570827  0.15231860    -0.77900
C79         C  0.49472228  0.05252393  0.15697643     0.82900
N80         N  0.49883453  0.03686582  0.12624913    -0.77800
C81         C  0.49074972  0.05392292  0.09097146     0.83000
N82         N  0.47888180  0.08688050  0.08670009    -0.79500
In83       In  0.39570536  0.42051058  0.14140180     1.36900
C84         C  0.42245588  0.46190664  0.10871774     0.77800
O85         O  0.40510017  0.46578624  0.18540742    -0.60700
O86         O  0.41393334  0.41295994  0.20722157    -0.51600
C87         C  0.34046314  0.41846508  0.11838248     0.70500
O88         O  0.35215124  0.43019880  0.09675445    -0.46400
C89         C  0.40758548  0.35375734  0.12662156     0.75200
O90         O  0.39891271  0.46998235  0.10817022    -0.58300
O91         O  0.42034732  0.37008507  0.15891704    -0.48400
O92         O  0.43200631  0.43276292  0.12576934    -0.54700
C93         C  0.41436624  0.44598986  0.21536245     0.85300
O94         O  0.35725076  0.40768685  0.15145205    -0.56600
O95         O  0.38858626  0.37198489  0.10147959    -0.59900
C96         C  0.50892872  0.98768372  0.02955286     0.80400
N97         N  0.50626922  0.00391582  0.06099949    -0.77900
C98         C  0.49437014  0.03687941  0.05724422     0.82900
N99         N  0.48487912  0.05356190  0.02167692    -0.77800
C100        C  0.48671572  0.03715007  0.98977838     0.83000
N101        N  0.49886105  0.00436434  0.99410069    -0.79500
In102      In  0.57755484  0.66489256  0.00411786     1.36900
C103        C  0.54333696  0.62253690  0.02279783     0.77800
O104        O  0.57730849  0.70905861  0.04616620    -0.60700
O105        O  0.56135981  0.72006782  0.98490755    -0.51600
C106        C  0.63324300  0.66518843  0.03484203     0.70500
O107        O  0.61930856  0.65444559  0.05384482    -0.46400
C108        C  0.56421124  0.64096676  0.93069643     0.75200
O109        O  0.56911615  0.61669877  0.03471029    -0.58300
O110        O  0.56026060  0.67292557  0.93889665    -0.48400
O111        O  0.53547930  0.65072901  0.00283415    -0.54700
C112        C  0.56655426  0.73176844  0.01920800     0.85300
O113        O  0.61863665  0.67612182  0.00072179    -0.56600
O114        O  0.57519882  0.62127295  0.96050551    -0.59900
C115        C  0.51356970  0.60774827  0.52619314     0.80400
N116        N  0.50400935  0.58970955  0.49122329    -0.77900
C117        C  0.49127904  0.55726114  0.48722903     0.82900
N118        N  0.48744866  0.54282368  0.51828879    -0.77800
C119        C  0.49683750  0.56044533  0.55353967     0.83000
N120        N  0.50976700  0.59295695  0.55737694    -0.79500
In121      In  0.58766341  0.93047193  0.50727662     1.36900
C122        C  0.56001529  0.97550921  0.53531883     0.77800
O123        O  0.57591001  0.97311730  0.46082542    -0.60700
O124        O  0.57459078  0.91887199  0.44261280    -0.51600
C125        C  0.64332734  0.93190734  0.53400222     0.70500
O126        O  0.63033159  0.93979068  0.55532369    -0.46400
C127        C  0.57328159  0.86462822  0.52081668     0.75200
O128        O  0.58473321  0.98126095  0.53923241    -0.58300
O129        O  0.56096362  0.88101391  0.48893662    -0.48400
O130        O  0.55003943  0.94593193  0.51882421    -0.54700
C131        C  0.57053010  0.95132350  0.43235806     0.85300
O132        O  0.62769309  0.92292103  0.49924114    -0.56600
O133        O  0.59348166  0.88172723  0.54594708    -0.59900
C134        C  0.47300418  0.49833141  0.61169157     0.80400
N135        N  0.48062716  0.51665572  0.64636780    -0.77900
C136        C  0.49362567  0.54912973  0.65126240     0.82900
N137        N  0.49937305  0.56307535  0.62137487    -0.77800
C138        C  0.49171773  0.54493707  0.58653516     0.83000
N139        N  0.47881449  0.51240276  0.58198369    -0.79500
In140      In  0.40675420  0.17578517  0.64686195     1.36900
C141        C  0.43799945  0.13637636  0.61957385     0.77800
O142        O  0.40750694  0.21928898  0.60511658    -0.60700
O143        O  0.42160923  0.23186778  0.66588496    -0.51600
C144        C  0.35146339  0.17905458  0.62060832     0.70500
O145        O  0.36364302  0.15655625  0.60721155    -0.46400
C146        C  0.42222956  0.14900630  0.71935144     0.75200
O147        O  0.41182519  0.13753502  0.60241226    -0.58300
O148        O  0.43116513  0.17831432  0.71192292    -0.48400
O149        O  0.44783814  0.15557239  0.65031990    -0.54700
C150        C  0.41713174  0.24298787  0.63176925     0.85300
O151        O  0.36777811  0.19874234  0.64789670    -0.56600
O152        O  0.40479541  0.13328837  0.68916710    -0.59900
C153        C  0.41901571  0.33279829  0.58291941    -0.22300
C154        C  0.43646342  0.35289181  0.61569214     0.09700
C155        C  0.44714513  0.33713030  0.65330901     0.10100
C156        C  0.44036986  0.30132976  0.65732470    -0.17200
C157        C  0.42316675  0.28070413  0.62459517    -0.27600
C158        C  0.41215259  0.29681858  0.58679917     0.18400
C159        C  0.44395492  0.39024803  0.61017558     0.12400
C160        C  0.46595790  0.35801803  0.68918554    -0.11900
H161        H  0.44884142  0.28932046  0.68631374     0.12700
C162        C  0.39286239  0.27679069  0.55057578    -0.22800
H163        H  0.41086978  0.34536124  0.55417446     0.08300
C164        C  0.46623795  0.39760433  0.59895183     0.04700
C165        C  0.47438979  0.43343781  0.59778719    -0.20000
C166        C  0.46077907  0.46194148  0.60774115    -0.12300
C167        C  0.43740240  0.45456582  0.61675249     0.13400
C168        C  0.42951611  0.41870605  0.61837032    -0.22700
C169        C  0.48192469  0.36757188  0.58946479    -0.05800
H170        H  0.49217207  0.43914384  0.59065929     0.14900
C171        C  0.41990253  0.48374429  0.62372254    -0.16000
H172        H  0.41209222  0.41285681  0.62632657     0.09200
H173        H  0.38556175  0.29415666  0.52407398     0.07100
H174        H  0.37423600  0.26721688  0.55513543     0.08300
H175        H  0.40383433  0.25356783  0.54435388     0.07300
H176        H  0.45482292  0.38187149  0.69375435     0.02200
H177        H  0.48484747  0.36708175  0.68502982     0.02700
H178        H  0.47271325  0.34150565  0.71630444     0.06200
H179        H  0.49894539  0.37799020  0.58156740     0.05200
H180        H  0.46749340  0.35149162  0.56408987    -0.00600
H181        H  0.49125916  0.34982184  0.61543244     0.00900
H182        H  0.39779286  0.47962897  0.60338644     0.04600
H183        H  0.42598085  0.51096971  0.61797175     0.06500
H184        H  0.42155099  0.48262541  0.65461115     0.07400
C185        C  0.52847787  0.06096088  0.55798467    -0.22300
C186        C  0.51048310  0.04623377  0.57374652     0.09700
C187        C  0.50925474  0.00863915  0.57759754     0.10100
C188        C  0.52580754  0.98643243  0.56492861    -0.17200
C189        C  0.54374691  0.00093956  0.54873175    -0.27600
C190        C  0.54489525  0.03885494  0.54487752     0.18400
C191        C  0.49248680  0.07056698  0.58511491     0.12400
C192        C  0.49049733  0.99204782  0.59516659    -0.11900
H193        H  0.52482862  0.95748328  0.56786308     0.12700
C194        C  0.56178821  0.05722719  0.52533063    -0.22800
H195        H  0.52912560  0.08984766  0.55489283     0.08300
C196        C  0.50167727  0.08581641  0.62321170     0.04700
C197        C  0.48348806  0.10747864  0.63316209    -0.20000
C198        C  0.45611129  0.11402789  0.60603346    -0.12300
C199        C  0.44711406  0.09909875  0.56745116     0.13400
C200        C  0.46552531  0.07764138  0.55752907    -0.22700
C201        C  0.53057498  0.07882676  0.65348485    -0.05800
H202        H  0.49062518  0.11882242  0.66266718     0.14900
C203        C  0.41842942  0.10580388  0.53640533    -0.16000
H204        H  0.45878519  0.06586535  0.52822526     0.09200
H205        H  0.57842743  0.07384572  0.54748174     0.07100
H206        H  0.54805793  0.07511713  0.50171995     0.08300
H207        H  0.57138219  0.03852415  0.51103256     0.07300
H208        H  0.46852181  0.99919919  0.57723879     0.02200
H209        H  0.49634192  0.00218954  0.62579340     0.02700
H210        H  0.49206231  0.96223881  0.59612567     0.06200
H211        H  0.53446417  0.09282736  0.68188955     0.05200
H212        H  0.54622006  0.08853409  0.64242492    -0.00600
H213        H  0.53343372  0.04952825  0.65927369     0.00900
H214        H  0.41555156  0.09320574  0.50765047     0.04600
H215        H  0.41504302  0.13518914  0.53170670     0.06500
H216        H  0.40246032  0.09412108  0.54570225     0.07400
C217        C  0.53087073  0.78024972  0.51644657    -0.22300
C218        C  0.55205489  0.75508314  0.53344149     0.09700
C219        C  0.58013591  0.76641060  0.54832001     0.10100
C220        C  0.58639192  0.80280110  0.54543980    -0.17200
C221        C  0.56520118  0.82790960  0.52743472    -0.27600
C222        C  0.53699883  0.81662391  0.51372380     0.18400
C223        C  0.54414528  0.71684722  0.53405928     0.12400
C224        C  0.60343442  0.74006631  0.56686841    -0.11900
H225        H  0.60795623  0.81142805  0.55598615     0.12700
C226        C  0.51274845  0.84203309  0.49715753    -0.22800
H227        H  0.50933976  0.77141337  0.50530003     0.08300
C228        C  0.53263579  0.70443496  0.56034814     0.04700
C229        C  0.52386399  0.66843241  0.55797243    -0.20000
C230        C  0.52573068  0.64458035  0.52929875    -0.12300
C231        C  0.53800801  0.65714291  0.50349461     0.13400
C232        C  0.54703081  0.69307200  0.50639836    -0.22700
C233        C  0.52941686  0.72927126  0.59069727    -0.05800
H234        H  0.51461167  0.65929779  0.57787820     0.14900
C235        C  0.54213721  0.63327137  0.47301417    -0.16000
H236        H  0.55590090  0.70302682  0.48634916     0.09200
H237        H  0.49916312  0.83902292  0.51367501     0.07100
H238        H  0.50041613  0.83532281  0.46562463     0.08300
H239        H  0.51900981  0.87071615  0.49970767     0.07300
H240        H  0.60289599  0.71917677  0.54491700     0.02200
H241        H  0.60113169  0.72694729  0.59233401     0.02700
H242        H  0.62414188  0.75351423  0.57762869     0.06200
H243        H  0.52066076  0.71503047  0.60959035     0.05200
H244        H  0.51514618  0.75158702  0.57584771    -0.00600
H245        H  0.55003145  0.74060788  0.61002648     0.00900
H246        H  0.52174300  0.62562281  0.44956467     0.04600
H247        H  0.55387361  0.60886369  0.48730985     0.06500
H248        H  0.55418034  0.64710311  0.45822769     0.07400
C249        C  0.55185564  0.58262858  0.83938570    -0.22300
C250        C  0.53832219  0.60715541  0.80936865     0.09700
C251        C  0.53405982  0.64271419  0.81905013     0.10100
C252        C  0.54316778  0.65289906  0.85883318    -0.17200
C253        C  0.55624090  0.62826109  0.88933557    -0.27600
C254        C  0.56084534  0.59257491  0.87931652     0.18400
C255        C  0.52698952  0.59425333  0.76802098     0.12400
C256        C  0.51977263  0.66980995  0.78734737    -0.11900
H257        H  0.53963812  0.68027820  0.86603320     0.12700
C258        C  0.57481596  0.56455689  0.91006982    -0.22800
H259        H  0.55484284  0.55528416  0.83139015     0.08300
C260        C  0.54379519  0.59088964  0.74633624     0.04700
C261        C  0.53191878  0.57767054  0.70744295    -0.20000
C262        C  0.50374904  0.56736885  0.69009514    -0.12300
C263        C  0.48676799  0.57194890  0.71158847     0.13400
C264        C  0.49874999  0.58490081  0.75046758    -0.22700
C265        C  0.57423902  0.60077280  0.76442738    -0.05800
H266        H  0.54492174  0.57411514  0.69100160     0.14900
C267        C  0.45588301  0.56462407  0.69426403    -0.16000
H268        H  0.48588400  0.58801684  0.76724450     0.09200
H269        H  0.59613593  0.57370351  0.92942179     0.07100
H270        H  0.57674716  0.53842863  0.89656952     0.08300
H271        H  0.56238087  0.55965081  0.92793275     0.07300
H272        H  0.49829535  0.66052782  0.76894145     0.02200
H273        H  0.53158710  0.67304058  0.76835098     0.02700
H274        H  0.51838094  0.69658818  0.80000150     0.06200
H275        H  0.58431528  0.59672457  0.74329057     0.05200
H276        H  0.58517148  0.58376815  0.79058313    -0.00600
H277        H  0.57670232  0.62951248  0.77368083     0.00900
H278        H  0.45111354  0.54178055  0.70984434     0.04600
H279        H  0.44760331  0.55851753  0.66230851     0.06500
H280        H  0.44475582  0.58888026  0.69795856     0.07400
C281        C  0.56989501  0.82700577  0.05989567    -0.22300
C282        C  0.54402986  0.84009379  0.03421365     0.09700
C283        C  0.52546149  0.81731038  0.00475124     0.10100
C284        C  0.53346953  0.78198655  0.00108357    -0.17200
C285        C  0.55953630  0.76883199  0.02634055    -0.27600
C286        C  0.57804930  0.79164515  0.05626811     0.18400
C287        C  0.53745938  0.87847352  0.03658444     0.12400
C288        C  0.49729463  0.83040258  0.97704241    -0.11900
H289        H  0.51929323  0.76449336  0.97826686     0.12700
C290        C  0.60700060  0.78068507  0.08350796    -0.22800
H291        H  0.58415520  0.84488087  0.08217384     0.08300
C292        C  0.52433546  0.89061187  0.06110018     0.04700
C293        C  0.51614554  0.92673312  0.05920341    -0.20000
C294        C  0.52066042  0.95090106  0.03311352    -0.12300
C295        C  0.53538532  0.93892231  0.01024784     0.13400
C296        C  0.54348730  0.90280230  0.01228792    -0.22700
C297        C  0.51854255  0.86524994  0.08860161    -0.05800
H298        H  0.50528586  0.93575901  0.07721578     0.14900
C299        C  0.54318160  0.96385525  0.98415388    -0.16000
H300        H  0.55406198  0.89316152  0.99411024     0.09200
H301        H  0.60875529  0.78146291  0.11447930     0.07100
H302        H  0.62236367  0.79989000  0.08058253     0.08300
H303        H  0.61289736  0.75354437  0.07720525     0.07300
H304        H  0.49980722  0.85345256  0.95975846     0.02200
H305        H  0.48508704  0.83915247  0.99418421     0.02700
H306        H  0.48525667  0.80899636  0.95595997     0.06200
H307        H  0.50822064  0.87910902  0.10588541     0.05200
H308        H  0.53840404  0.85378671  0.10965555    -0.00600
H309        H  0.50471557  0.84302275  0.07142603     0.00900
H310        H  0.55436456  0.98782907  0.00138370     0.04600
H311        H  0.52429604  0.97226691  0.95867576     0.06500
H312        H  0.55709226  0.95055349  0.97197758     0.07400
C313        C  0.44231055  0.08935644  0.89735774    -0.22300
C314        C  0.45847419  0.08611975  0.87502090     0.09700
C315        C  0.48367622  0.06697377  0.89032586     0.10100
C316        C  0.49229086  0.05167245  0.92791261    -0.17200
C317        C  0.47613274  0.05459133  0.95050992    -0.27600
C318        C  0.45040461  0.07315703  0.93450134     0.18400
C319        C  0.44840291  0.10237675  0.83526943     0.12400
C320        C  0.50130610  0.06239903  0.86676543    -0.11900
H321        H  0.51187863  0.03742564  0.93979563     0.12700
C322        C  0.43003340  0.07485451  0.95411199    -0.22800
H323        H  0.42275080  0.10367176  0.88510876     0.08300
C324        C  0.42884355  0.08456952  0.80190155     0.04700
C325        C  0.42059385  0.10057494  0.76467191    -0.20000
C326        C  0.43152482  0.13401667  0.75987435    -0.12300
C327        C  0.45121273  0.15183667  0.79373676     0.13400
C328        C  0.45923760  0.13574244  0.83089801    -0.22700
C329        C  0.41701598  0.04842820  0.80558905    -0.05800
H330        H  0.40563459  0.08664165  0.73912347     0.14900
C331        C  0.46417391  0.18760695  0.79144221    -0.16000
H332        H  0.47432928  0.14906838  0.85682287     0.09200
H333        H  0.40927075  0.06539826  0.93297743     0.07100
H334        H  0.42819517  0.10308895  0.96279842     0.08300
H335        H  0.43562035  0.05752820  0.98028795     0.07300
H336        H  0.50812684  0.08914388  0.86060549     0.02200
H337        H  0.48904302  0.04846796  0.83839750     0.02700
H338        H  0.52017574  0.04619278  0.88279867     0.06200
H339        H  0.40221444  0.03793856  0.77656400     0.05200
H340        H  0.40572120  0.05073557  0.82538206    -0.00600
H341        H  0.43412713  0.02870316  0.81804112     0.00900
H342        H  0.47893363  0.19724434  0.82089625     0.04600
H343        H  0.44773594  0.20827743  0.77949775     0.06500
H344        H  0.47604690  0.18509280  0.77241933     0.07400
C345        C  0.48566142  0.51370125  0.39126370    -0.22300
C346        C  0.45679975  0.50877385  0.37231552     0.09700
C347        C  0.43944251  0.51847054  0.39181256     0.10100
C348        C  0.45141785  0.53346180  0.42989799    -0.17200
C349        C  0.48027186  0.53895988  0.44864039    -0.27600
C350        C  0.49769565  0.52850967  0.42938281     0.18400
C351        C  0.44531414  0.49300653  0.33214328     0.12400
C352        C  0.40836699  0.51311663  0.37234810    -0.11900
H353        H  0.43818543  0.54158407  0.44483771     0.12700
C354        C  0.52899258  0.53158680  0.44848193    -0.22800
H355        H  0.49888213  0.50573603  0.37625523     0.08300
C356        C  0.43752738  0.51481120  0.29850413     0.04700
C357        C  0.42738601  0.49856106  0.26102013    -0.20000
C358        C  0.42497408  0.46090226  0.25625356    -0.12300
C359        C  0.43278538  0.43908238  0.29036498     0.13400
C360        C  0.44285819  0.45555270  0.32785114    -0.22700
C361        C  0.44013830  0.55521367  0.30220137    -0.05800
H362        H  0.42154155  0.51551423  0.23529784     0.14900
C363        C  0.43054213  0.39860500  0.28795473    -0.16000
H364        H  0.44898278  0.43918819  0.35406391     0.09200
H365        H  0.53637496  0.55008183  0.43114343     0.07100
H366        H  0.53826199  0.50463961  0.44903935     0.08300
H367        H  0.53682627  0.54165309  0.47932728     0.07300
H368        H  0.40348909  0.48413926  0.36542548     0.02200
H369        H  0.39972915  0.52867911  0.34460225     0.02700
H370        H  0.39788580  0.52221126  0.39170841     0.06200
H371        H  0.43321007  0.56825268  0.27291180     0.05200
H372        H  0.46219448  0.56293653  0.31945781    -0.00600
H373        H  0.42715681  0.56569182  0.31745550     0.00900
H374        H  0.44424452  0.38767625  0.27406299     0.04600
H375        H  0.40862295  0.39037241  0.27052424     0.06500
H376        H  0.43707239  0.38634077  0.31760279     0.07400
C377        C  0.47158607  0.49444070  0.06227585    -0.22300
C378        C  0.46971500  0.53181095  0.06565357     0.09700
C379        C  0.45115773  0.54620619  0.08107060     0.10100
C380        C  0.43520149  0.52273397  0.09353870    -0.17200
C381        C  0.43798343  0.48520365  0.09191491    -0.27600
C382        C  0.45618505  0.47088328  0.07555806     0.18400
C383        C  0.48856673  0.55517436  0.05481695     0.12400
C384        C  0.44889058  0.58626385  0.08545497    -0.11900
H385        H  0.42128081  0.53376121  0.10600660     0.12700
C386        C  0.45930292  0.43089343  0.07151886    -0.22800
H387        H  0.48579106  0.48369921  0.05013204     0.08300
C388        C  0.51651879  0.56071295  0.08097056     0.04700
C389        C  0.53390282  0.58247465  0.06942008    -0.20000
C390        C  0.52407957  0.59861896  0.03213175    -0.12300
C391        C  0.49617642  0.59197233  0.00536394     0.13400
C392        C  0.47867015  0.57093815  0.01747361    -0.22700
C393        C  0.52788981  0.54387120  0.12122756    -0.05800
H394        H  0.55522547  0.58727423  0.08985775     0.14900
C395        C  0.48434520  0.60471934  0.96322166    -0.16000
H396        H  0.45733664  0.56592454  0.99721937     0.09200
H397        H  0.46882287  0.41850388  0.10110563     0.07100
H398        H  0.47298294  0.42471702  0.05574034     0.08300
H399        H  0.43861266  0.41843254  0.05456250     0.07300
H400        H  0.44201183  0.59915140  0.05611456     0.02200
H401        H  0.46947354  0.59753887  0.10504442     0.02700
H402        H  0.43365393  0.59306192  0.09848043     0.06200
H403        H  0.55002600  0.55139527  0.13828309     0.05200
H404        H  0.52657353  0.51409644  0.11823646    -0.00600
H405        H  0.51563819  0.55294772  0.13818638     0.00900
H406        H  0.47520737  0.58143035  0.94313794     0.04600
H407        H  0.50002145  0.61673825  0.95374782     0.06500
H408        H  0.46768440  0.62464661  0.95914489     0.07400
C409        C  0.46027546  0.20217043  0.09396296    -0.22300
C410        C  0.43947721  0.20803772  0.10816658     0.09700
C411        C  0.42976666  0.17920454  0.12395194     0.10100
C412        C  0.44164880  0.14508658  0.12607828    -0.17200
C413        C  0.46320278  0.13935089  0.11312748    -0.27600
C414        C  0.47279689  0.16840186  0.09708134     0.18400
C415        C  0.43133921  0.24547973  0.11187294     0.12400
C416        C  0.40741355  0.18477750  0.13946487    -0.11900
H417        H  0.43431287  0.12286392  0.13832189     0.12700
C418        C  0.49741449  0.16583427  0.08564958    -0.22800
H419        H  0.46803783  0.22472058  0.08271787     0.08300
C420        C  0.44751953  0.26663642  0.14486206     0.04700
C421        C  0.43918236  0.30174115  0.14835602    -0.20000
C422        C  0.41493358  0.31645306  0.11969748    -0.12300
C423        C  0.39865740  0.29504642  0.08639954     0.13400
C424        C  0.40718987  0.25974683  0.08295066    -0.22700
C425        C  0.47349432  0.25195506  0.17671870    -0.05800
H426        H  0.45179428  0.31773960  0.17387203     0.14900
C427        C  0.37215479  0.30864809  0.05478287    -0.16000
H428        H  0.39489644  0.24303637  0.05780973     0.09200
H429        H  0.51266648  0.18746237  0.10098766     0.07100
H430        H  0.49033451  0.16941755  0.05331666     0.08300
H431        H  0.50877718  0.14013448  0.09397958     0.07300
H432        H  0.38818420  0.19460704  0.11541977     0.02200
H433        H  0.41449384  0.20493808  0.16385988     0.02700
H434        H  0.40227447  0.15943824  0.15094733     0.06200
H435        H  0.48346500  0.27189195  0.20083754     0.05200
H436        H  0.48883666  0.24470539  0.16405976    -0.00600
H437        H  0.46825077  0.22764030  0.18975699     0.00900
H438        H  0.37673888  0.33233584  0.04016632     0.04600
H439        H  0.35715212  0.31614862  0.06797115     0.06500
H440        H  0.36201362  0.28789616  0.03163065     0.07400
C441        C  0.53707210  0.95347148  0.31954093    -0.22300
C442        C  0.53830298  0.99036941  0.31292497     0.09700
C443        C  0.55098866  0.01400158  0.34522262     0.10100
C444        C  0.56155328  0.00029950  0.38362412    -0.17200
C445        C  0.56009185  0.96335132  0.39066245    -0.27600
C446        C  0.54800601  0.93949882  0.35794638     0.18400
C447        C  0.52645651  0.00385415  0.27190367     0.12400
C448        C  0.55364603  0.05366039  0.33909584    -0.11900
H449        H  0.57103466  0.01869153  0.40831245     0.12700
C450        C  0.54613630  0.89946864  0.36290197    -0.22800
H451        H  0.52746599  0.93553751  0.29438754     0.08300
C452        C  0.54130492  0.00145678  0.24739100     0.04700
C453        C  0.52997421  0.01650240  0.20955233    -0.20000
C454        C  0.50438734  0.03464303  0.19596569    -0.12300
C455        C  0.48920997  0.03623296  0.22040922     0.13400
C456        C  0.50042032  0.02057772  0.25796054    -0.22700
C457        C  0.56949356  0.98399790  0.26170760    -0.05800
H458        H  0.54165339  0.01519670  0.19102986     0.14900
C459        C  0.46101264  0.05369851  0.20707108    -0.16000
H460        H  0.48909847  0.02200616  0.27699467     0.09200
H461        H  0.56736385  0.88811962  0.37739659     0.07100
H462        H  0.53570798  0.88533887  0.33409435     0.08300
H463        H  0.53389768  0.89385045  0.38088173     0.07300
H464        H  0.53267151  0.06565027  0.32445362     0.02200
H465        H  0.56552844  0.05770054  0.32030151     0.02700
H466        H  0.56473035  0.06822777  0.36745805     0.06200
H467        H  0.57855165  0.98493800  0.23914379     0.05200
H468        H  0.56769911  0.95535183  0.26873455    -0.00600
H469        H  0.58399409  0.99818766  0.28863876     0.00900
H470        H  0.44683044  0.04186063  0.17839811     0.04600
H471        H  0.46295947  0.08314621  0.20408267     0.06500
H472        H  0.45131998  0.04964002  0.22862472     0.07400
C473        C  0.20888000  0.45477552  0.07407955    -0.22300
C474        C  0.22059299  0.42257696  0.06822149     0.09700
C475        C  0.20329813  0.39254461  0.05149903     0.10100
C476        C  0.17450912  0.39535030  0.04111901    -0.17200
C477        C  0.16257351  0.42752019  0.04714179    -0.27600
C478        C  0.18007343  0.45779526  0.06357917     0.18400
C479        C  0.25112549  0.42087590  0.08019399     0.12400
C480        C  0.21523374  0.35772316  0.04420470    -0.11900
H481        H  0.16126836  0.37219284  0.02832768     0.12700
C482        C  0.16866049  0.49369632  0.06904078    -0.22800
H483        H  0.22243095  0.47773236  0.08679905     0.08300
C484        C  0.26403841  0.43475142  0.05621833     0.04700
C485        C  0.29310579  0.43299679  0.06922001    -0.20000
C486        C  0.30969181  0.41801501  0.10593249    -0.12300
C487        C  0.29646142  0.40378018  0.12978663     0.13400
C488        C  0.26736108  0.40545109  0.11645633    -0.22700
C489        C  0.24709816  0.45138783  0.01693175    -0.05800
H490        H  0.30290036  0.44383408  0.05069364     0.14900
C491        C  0.31251247  0.38682734  0.16928234    -0.16000
H492        H  0.25708362  0.39484959  0.13458256     0.09200
H493        H  0.18525773  0.51458080  0.08037819     0.07100
H494        H  0.15891285  0.49134944  0.09069619     0.08300
H495        H  0.15305024  0.50308146  0.04031902     0.07300
H496        H  0.23037121  0.34698052  0.07253325     0.02200
H497        H  0.22598590  0.36244941  0.02406281     0.02700
H498        H  0.19879779  0.33700052  0.03048818     0.06200
H499        H  0.26039406  0.46045036  0.00156121     0.05200
H500        H  0.23575408  0.47512933  0.02126692    -0.00600
H501        H  0.23184414  0.43138758  0.99768729     0.00900
H502        H  0.29853332  0.37681938  0.18317244     0.04600
H503        H  0.32681409  0.40696170  0.18980862     0.06500
H504        H  0.32449369  0.36348617  0.16560231     0.07400
C505        C  0.01438558  0.28546784  0.01731322    -0.22300
C506        C  0.03444538  0.26095519  0.04023228     0.09700
C507        C  0.06230368  0.27244906  0.06024433     0.10100
C508        C  0.06957469  0.30821049  0.05623342    -0.17200
C509        C  0.04970998  0.33245952  0.03198393    -0.27600
C510        C  0.02153065  0.32118259  0.01322083     0.18400
C511        C  0.02590322  0.22292243  0.04072400     0.12400
C512        C  0.08438016  0.24676992  0.08511730    -0.11900
H513        H  0.09111302  0.31683272  0.07074446     0.12700
C514        C  0.99825898  0.34600790  0.98945304    -0.22800
H515        H  0.99296933  0.27656337  0.00229215     0.08300
C516        C  0.01246096  0.21134121  0.06500307     0.04700
C517        C  0.00308126  0.17550086  0.06213796    -0.20000
C518        C  0.00649303  0.15101841  0.03510945    -0.12300
C519        C  0.02069811  0.16271977  0.01145061     0.13400
C520        C  0.03016295  0.19848093  0.01468700    -0.22700
C521        C  0.00797243  0.23687530  0.09378174    -0.05800
H522        H  0.99245746  0.16682898  0.08049910     0.14900
C523        C  0.02670262  0.13783640  0.98333396    -0.16000
H524        H  0.04064385  0.20771632  0.99631223     0.09200
H525        H  0.98157538  0.34495171  0.00088468     0.07100
H526        H  0.98942737  0.33713260  0.95807723     0.08300
H527        H  0.00480884  0.37453429  0.99114928     0.07300
H528        H  0.08622569  0.22413134  0.06651910     0.02200
H529        H  0.07872096  0.23595745  0.10892072     0.02700
H530        H  0.10506123  0.26015603  0.09901420     0.06200
H531        H  0.99740086  0.22344611  0.11088716     0.05200
H532        H  0.99484648  0.25970191  0.07766638    -0.00600
H533        H  0.02835308  0.24743892  0.11491418     0.00900
H534        H  0.00704718  0.12966896  0.95866678     0.04600
H535        H  0.03794406  0.11373692  0.99931398     0.06500
H536        H  0.03995647  0.15101682  0.97002087     0.07400
C537        C  0.71040040  0.64314447  0.08960399    -0.22300
C538        C  0.72265249  0.67183996  0.07776469     0.09700
C539        C  0.70559775  0.69813677  0.05236625     0.10100
C540        C  0.67659250  0.69516131  0.03943173    -0.17200
C541        C  0.66409250  0.66627806  0.05084118    -0.27600
C542        C  0.68132542  0.63954313  0.07593596     0.18400
C543        C  0.75333987  0.67298910  0.09087444     0.12400
C544        C  0.71800496  0.72944650  0.03907573    -0.11900
H545        H  0.66354721  0.71559980  0.02018359     0.12700
C546        C  0.67025215  0.60580357  0.08719672    -0.22800
H547        H  0.72365118  0.62269240  0.10859145     0.08300
C548        C  0.77090240  0.68447961  0.12921243     0.04700
C549        C  0.79981555  0.68518075  0.14000530    -0.20000
C550        C  0.81156051  0.67496284  0.11323490    -0.12300
C551        C  0.79378122  0.66473438  0.07427405     0.13400
C552        C  0.76494544  0.66311181  0.06396521    -0.22700
C553        C  0.75911172  0.69639346  0.15849817    -0.05800
H554        H  0.81336977  0.69337726  0.16971254     0.14900
C555        C  0.80402028  0.65721836  0.04211461    -0.16000
H556        H  0.75128437  0.65493348  0.03430681     0.09200
H557        H  0.67616113  0.60568183  0.11958532     0.07100
H558        H  0.67956382  0.58192238  0.07893077     0.08300
H559        H  0.64744912  0.60249371  0.07221585     0.07300
H560        H  0.72985722  0.71953785  0.02189772     0.02200
H561        H  0.73221424  0.74491678  0.06517680     0.02700
H562        H  0.70171875  0.74801745  0.01999976     0.06200
H563        H  0.77573525  0.70513663  0.18695071     0.05200
H564        H  0.74744404  0.67385948  0.16454873    -0.00600
H565        H  0.74483604  0.71939044  0.14637015     0.00900
H566        H  0.79957351  0.62873598  0.03226118     0.04600
H567        H  0.82650770  0.66257822  0.05105136     0.06500
H568        H  0.79292514  0.67491500  0.01661273     0.07400
C569        C  0.02634202  0.54742853  0.09491325    -0.22300
C570        C  0.99731821  0.54390349  0.07722969     0.09700
C571        C  0.98511500  0.51771496  0.04751554     0.10100
C572        C  0.00227591  0.49580575  0.03575093    -0.17200
C573        C  0.03148473  0.49901678  0.05336386    -0.27600
C574        C  0.04367399  0.52521477  0.08362183     0.18400
C575        C  0.98009005  0.56743793  0.09093456     0.12400
C576        C  0.95399375  0.51254134  0.02868242    -0.11900
H577        H  0.99270509  0.47576586  0.01280393     0.12700
C578        C  0.07474338  0.53033775  0.10407041    -0.22800
H579        H  0.03543799  0.56759709  0.11790008     0.08300
C580        C  0.97567337  0.55941271  0.12527488     0.04700
C581        C  0.95932181  0.58252796  0.13732699    -0.20000
C582        C  0.94682164  0.61305393  0.11536327    -0.12300
C583        C  0.95148375  0.62127411  0.08105298     0.13400
C584        C  0.96807541  0.59824521  0.06929239    -0.22700
C585        C  0.98780943  0.52610541  0.14871873    -0.05800
H586        H  0.95577571  0.57633696  0.16362928     0.14900
C587        C  0.94027666  0.65453952  0.05691072    -0.16000
H588        H  0.97179016  0.60443239  0.04311462     0.09200
H589        H  0.08445530  0.50531053  0.11961961     0.07100
H590        H  0.08031530  0.55236306  0.12644601     0.08300
H591        H  0.08355273  0.53737712  0.08216999     0.07300
H592        H  0.94394043  0.53769966  0.01389823     0.02200
H593        H  0.94610250  0.50558702  0.05160691     0.02700
H594        H  0.94787100  0.49054728  0.00624933     0.06200
H595        H  0.98207935  0.52361889  0.17452234     0.05200
H596        H  0.01086143  0.52701310  0.15975947    -0.00600
H597        H  0.97992675  0.50184838  0.12971156     0.00900
H598        H  0.95788170  0.67099993  0.05636797     0.04600
H599        H  0.92808159  0.67182792  0.06858018     0.06500
H600        H  0.92666966  0.64660699  0.02621408     0.07400
C601        C  0.93277929  0.90634443  0.09751269    -0.22300
C602        C  0.94947921  0.88335962  0.12728859     0.09700
C603        C  0.97526628  0.89572292  0.15527207     0.10100
C604        C  0.98323947  0.93153701  0.15392832    -0.17200
C605        C  0.96613967  0.95527338  0.12504395    -0.27600
C606        C  0.94053629  0.94236773  0.09618974     0.18400
C607        C  0.93887308  0.84709929  0.13025487     0.12400
C608        C  0.99428461  0.87111220  0.18658715    -0.11900
H609        H  0.00298628  0.94112115  0.17571437     0.12700
C610        C  0.91999785  0.96575337  0.06501585    -0.22800
H611        H  0.91297075  0.89649029  0.07613223     0.08300
C612        C  0.92405166  0.84092176  0.15429235     0.04700
C613        C  0.91559025  0.80579817  0.15796810    -0.20000
C614        C  0.92197386  0.77670024  0.13860907    -0.12300
C615        C  0.93740903  0.78293728  0.11516083     0.13400
C616        C  0.94500554  0.81828339  0.11050555    -0.22700
C617        C  0.91738706  0.87138219  0.17625206    -0.05800
H618        H  0.90396963  0.80100161  0.17614216     0.14900
C619        C  0.94799239  0.75314830  0.09689498    -0.16000
H620        H  0.95692438  0.82325007  0.09274051     0.09200
H621        H  0.89923216  0.96324197  0.06635146     0.07100
H622        H  0.91827113  0.95665794  0.03540313     0.08300
H623        H  0.92541106  0.99468461  0.06863021     0.07300
H624        H  0.00003851  0.84781841  0.17241529     0.02200
H625        H  0.98366152  0.86110758  0.20529942     0.02700
H626        H  0.01375148  0.88507667  0.20604597     0.06200
H627        H  0.90556984  0.86187726  0.19360725     0.05200
H628        H  0.90462131  0.89176147  0.15499666    -0.00600
H629        H  0.93692461  0.88428593  0.19700195     0.00900
H630        H  0.93731523  0.75415681  0.06426332     0.04600
H631        H  0.94528873  0.72605930  0.10703608     0.06500
H632        H  0.97072225  0.75674535  0.10534114     0.07400
C633        C  0.21403541  0.19384358  0.52790614    -0.22300
C634        C  0.23149785  0.18414397  0.56630966     0.09700
C635        C  0.21989798  0.17509088  0.59363620     0.10100
C636        C  0.19090156  0.17532838  0.58168247    -0.17200
C637        C  0.17318546  0.18490746  0.54316082    -0.27600
C638        C  0.18498854  0.19440787  0.51586444     0.18400
C639        C  0.26197151  0.18365700  0.57757490     0.12400
C640        C  0.23813384  0.16475154  0.63529498    -0.11900
H641        H  0.18203552  0.16809913  0.60266956     0.12700
C642        C  0.16732390  0.20418058  0.47375518    -0.22800
H643        H  0.22325432  0.20086806  0.50725498     0.08300
C644        C  0.27508266  0.15489360  0.56676690     0.04700
C645        C  0.30424576  0.15447157  0.58069300    -0.20000
C646        C  0.32064975  0.18194854  0.60561652    -0.12300
C647        C  0.30720282  0.21132928  0.61550113     0.13400
C648        C  0.27804657  0.21178861  0.60105180    -0.22700
C649        C  0.25832427  0.12424137  0.54139535    -0.05800
H650        H  0.31426762  0.13210542  0.57269759     0.14900
C651        C  0.32308071  0.24243504  0.64113290    -0.16000
H652        H  0.26762462  0.23388248  0.60880433     0.09200
H653        H  0.15275111  0.18173324  0.45904246     0.07100
H654        H  0.18014670  0.20933743  0.45647950     0.08300
H655        H  0.15546808  0.22907832  0.47302658     0.07300
H656        H  0.25208285  0.18756915  0.65057552     0.02200
H657        H  0.25092404  0.14107962  0.63490553     0.02700
H658        H  0.22566691  0.15768136  0.65258176     0.06200
H659        H  0.27185799  0.10360798  0.53622821     0.05200
H660        H  0.24402174  0.13453106  0.51227960    -0.00600
H661        H  0.24594738  0.11103855  0.55605938     0.00900
H662        H  0.30894149  0.26330296  0.64434440     0.04600
H663        H  0.33637687  0.25547787  0.62781827     0.06500
H664        H  0.33609365  0.23279283  0.67119301     0.07400
C665        C  0.04533956  0.05981347  0.27321167    -0.22300
C666        C  0.03261630  0.08969559  0.28215715     0.09700
C667        C  0.00931252  0.10554464  0.25248075     0.10100
C668        C  0.99894930  0.09071786  0.21427167    -0.17200
C669        C  0.01124090  0.06021927  0.20553010    -0.27600
C670        C  0.03499635  0.04486422  0.23514874     0.18400
C671        C  0.04397724  0.10378268  0.32297859     0.12400
C672        C  0.99502550  0.13743287  0.26147367    -0.11900
H673        H  0.98069660  0.10221919  0.19147807     0.12700
C674        C  0.05028094  0.01324818  0.22757815    -0.22800
H675        H  0.06341394  0.04807147  0.29611375     0.08300
C676        C  0.03721169  0.08766636  0.35251975     0.04700
C677        C  0.04824387  0.10227783  0.39077425    -0.20000
C678        C  0.06537453  0.13296519  0.39974035    -0.12300
C679        C  0.07275220  0.14852424  0.37031880     0.13400
C680        C  0.06181771  0.13370932  0.33216645    -0.22700
C681        C  0.01775818  0.05575495  0.34334814    -0.05800
H682        H  0.04266502  0.09049726  0.41345763     0.14900
C683        C  0.09260676  0.17995455  0.37818496    -0.16000
H684        H  0.06723344  0.14556583  0.30936124     0.09200
H685        H  0.04931175  0.99021451  0.24598246     0.07100
H686        H  0.07243516  0.02077330  0.23564844     0.08300
H687        H  0.04177812  0.00434452  0.19629515     0.07300
H688        H  0.00982136  0.16042508  0.27191420     0.02200
H689        H  0.98753999  0.13029506  0.28477388     0.02700
H690        H  0.97684634  0.14616607  0.23503753     0.06200
H691        H  0.01431645  0.04685843  0.36973266     0.05200
H692        H  0.02660885  0.03284309  0.33278933    -0.00600
H693        H  0.99727171  0.06296132  0.32009916     0.00900
H694        H  0.11020018  0.17232100  0.37012254     0.04600
H695        H  0.10169990  0.18864972  0.40950141     0.06500
H696        H  0.08161287  0.20314790  0.35992022     0.07400
C697        C  0.99977242  0.38502482  0.51989782    -0.22300
C698        C  0.02748769  0.37929490  0.54548449     0.09700
C699        C  0.04283995  0.40718216  0.57105980     0.10100
C700        C  0.03041269  0.44094432  0.56911197    -0.17200
C701        C  0.00312129  0.44726592  0.54192169    -0.27600
C702        C  0.98723863  0.41858570  0.51808905     0.18400
C703        C  0.04047429  0.34469558  0.54274676     0.12400
C704        C  0.07241825  0.40142015  0.59972876    -0.11900
H705        H  0.04242063  0.46289528  0.58765708     0.12700
C706        C  0.95697980  0.42217960  0.49096931    -0.22800
H707        H  0.98796058  0.36325630  0.50078510     0.08300
C708        C  0.03721547  0.31365742  0.56225471     0.04700
C709        C  0.04897126  0.28114888  0.55698713    -0.20000
C710        C  0.06335769  0.27900774  0.53202980    -0.12300
C711        C  0.06699768  0.31038454  0.51302487     0.13400
C712        C  0.05539193  0.34280939  0.51859185    -0.22700
C713        C  0.02104772  0.31482078  0.58809506    -0.05800
H714        H  0.04611211  0.25701985  0.57132840     0.14900
C715        C  0.08346429  0.31106592  0.48749268    -0.16000
H716        H  0.05787612  0.36686796  0.50379924     0.09200
H717        H  0.94455793  0.40154918  0.49858043     0.07100
H718        H  0.95446513  0.41780756  0.45995844     0.08300
H719        H  0.94818283  0.44875465  0.49330048     0.07300
H720        H  0.08558588  0.39433556  0.58344575     0.02200
H721        H  0.07310190  0.37919396  0.62001975     0.02700
H722        H  0.08136412  0.42594230  0.61777181     0.06200
H723        H  0.02047681  0.28813882  0.60113433     0.05200
H724        H  0.99927603  0.32306385  0.57044539    -0.00600
H725        H  0.03085122  0.33448198  0.61254518     0.00900
H726        H  0.06955366  0.31834051  0.45689007     0.04600
H727        H  0.09355617  0.28512311  0.48662867     0.06500
H728        H  0.10028075  0.33162267  0.49918987     0.07400
C729        C  0.96251700  0.55660546  0.38857485    -0.22300
C730        C  0.94676943  0.58792173  0.38307808     0.09700
C731        C  0.93998139  0.60143634  0.41381625     0.10100
C732        C  0.94919187  0.58310720  0.44973019    -0.17200
C733        C  0.96513883  0.55148563  0.45578541    -0.27600
C734        C  0.97186042  0.53807546  0.42441615     0.18400
C735        C  0.93694884  0.60537590  0.34422012     0.12400
C736        C  0.92310775  0.63523638  0.40870014    -0.11900
H737        H  0.94374217  0.59365464  0.47316265     0.12700
C738        C  0.98917636  0.50485033  0.42800585    -0.22800
H739        H  0.96745777  0.54660583  0.36444040     0.08300
C740        C  0.95357812  0.63051938  0.33496735     0.04700
C741        C  0.94376747  0.64497114  0.29694814    -0.20000
C742        C  0.91780002  0.63462211  0.26791202    -0.12300
C743        C  0.90077658  0.61012848  0.27784540     0.13400
C744        C  0.91087952  0.59543663  0.31576164    -0.22700
C745        C  0.98180537  0.64156521  0.36500619    -0.05800
H746        H  0.95683931  0.66373176  0.28955839     0.14900
C747        C  0.87163415  0.59953657  0.25025251    -0.16000
H748        H  0.89817924  0.57624392  0.32339486     0.09200
H749        H  0.99321443  0.49985488  0.40103964     0.07100
H750        H  0.97806282  0.48079151  0.43221825     0.08300
H751        H  0.00968357  0.50803212  0.45308553     0.07300
H752        H  0.90244755  0.63153098  0.38407516     0.02200
H753        H  0.93412993  0.65813495  0.40195862     0.02700
H754        H  0.91970577  0.64220172  0.43576378     0.06200
H755        H  0.99212752  0.66148977  0.35288549     0.05200
H756        H  0.99542384  0.61761968  0.37445658    -0.00600
H757        H  0.97964805  0.65389253  0.39112172     0.00900
H758        H  0.87125365  0.57078422  0.24159321     0.04600
H759        H  0.86308294  0.61615238  0.22345372     0.06500
H760        H  0.85731998  0.60306751  0.26558222     0.07400
C761        C  0.77649335  0.90256535  0.58343337    -0.22300
C762        C  0.76322531  0.93552503  0.58191639     0.09700
C763        C  0.77908303  0.96759831  0.59115597     0.10100
C764        C  0.80803404  0.96591487  0.60217259    -0.17200
C765        C  0.82154407  0.93283073  0.60448035    -0.27600
C766        C  0.80534607  0.90073999  0.59390344     0.18400
C767        C  0.73255755  0.93569604  0.56954647     0.12400
C768        C  0.76544176  0.00349513  0.58968716    -0.11900
H769        H  0.82027643  0.99050314  0.61006941     0.12700
C770        C  0.81723622  0.86426246  0.59156835    -0.22800
H771        H  0.76409234  0.87807227  0.57558140     0.08300
C772        C  0.71442805  0.93504770  0.52935797     0.04700
C773        C  0.68556110  0.93378170  0.51892042    -0.20000
C774        C  0.67420785  0.93345226  0.54769041    -0.12300
C775        C  0.69256703  0.93439576  0.58814620     0.13400
C776        C  0.72150571  0.93539529  0.59845417    -0.22700
C777        C  0.72560248  0.93586468  0.49751130    -0.05800
H778        H  0.67175328  0.93328372  0.48790631     0.14900
C779        C  0.68206872  0.93357295  0.62070110    -0.16000
H780        H  0.73567966  0.93574309  0.62927998     0.09200
H781        H  0.80524872  0.85199296  0.56210869     0.07100
H782        H  0.81545364  0.84647926  0.61450403     0.08300
H783        H  0.83919025  0.86519599  0.59494866     0.07300
H784        H  0.75506789  0.00382980  0.61073431     0.02200
H785        H  0.74967858  0.00824049  0.55943590     0.02700
H786        H  0.78080798  0.02595475  0.59768591     0.06200
H787        H  0.70860274  0.93547717  0.46756039     0.05200
H788        H  0.73894461  0.91205539  0.50004907    -0.00600
H789        H  0.73813414  0.96073876  0.50056754     0.00900
H790        H  0.69941882  0.93312643  0.65032651     0.04600
H791        H  0.66917770  0.90904028  0.61768861     0.06500
H792        H  0.66955389  0.95795802  0.61942693     0.07400
C793        C  0.97767710  0.01357290  0.90573349    -0.22300
C794        C  0.94929554  0.00826907  0.88278097     0.09700
C795        C  0.92938928  0.01847810  0.89777118     0.10100
C796        C  0.93837725  0.03491028  0.93518994    -0.17200
C797        C  0.96674369  0.04151715  0.95746048    -0.27600
C798        C  0.98670417  0.02999689  0.94301860     0.18400
C799        C  0.94094680  0.99434719  0.84205520     0.12400
C800        C  0.89874832  0.01282875  0.87382149    -0.11900
H801        H  0.92320980  0.04360211  0.94661638     0.12700
C802        C  0.01762323  0.03436634  0.96617588    -0.22800
H803        H  0.99286965  0.00542558  0.89411180     0.08300
C804        C  0.93871373  0.01766770  0.81107760     0.04700
C805        C  0.93133609  0.00358843  0.77295901    -0.20000
C806        C  0.92641411  0.96655836  0.76493673    -0.12300
C807        C  0.92873741  0.94311393  0.79632767     0.13400
C808        C  0.93589812  0.95746114  0.83449768    -0.22700
C809        C  0.94420370  0.05747719  0.81833370    -0.05800
H810        H  0.92975171  0.02175397  0.74933485     0.14900
C811        C  0.92364554  0.90314850  0.79019559    -0.16000
H812        H  0.93779054  0.93985977  0.85869160     0.09200
H813        H  0.02644586  0.05190896  0.94973629     0.07100
H814        H  0.02771036  0.00759673  0.97016155     0.08300
H815        H  0.02298358  0.04626047  0.99592129     0.07300
H816        H  0.89433474  0.98370863  0.86728152     0.02200
H817        H  0.89235174  0.02769593  0.84565100     0.02700
H818        H  0.88598358  0.02254738  0.88978365     0.06200
H819        H  0.94133681  0.07196086  0.79079646     0.05200
H820        H  0.96594056  0.06211516  0.83976743    -0.00600
H821        H  0.92964894  0.06909170  0.83039566     0.00900
H822        H  0.93906963  0.89101039  0.78008836     0.04600
H823        H  0.90221607  0.89795077  0.76803997     0.06500
H824        H  0.92575539  0.88945502  0.81787658     0.07400
C825        C  0.97069528  0.02366776  0.56152777    -0.22300
C826        C  0.99395819  0.04009298  0.59071511     0.09700
C827        C  0.00008675  0.03334294  0.63080373     0.10100
C828        C  0.98254998  0.01045751  0.64084389    -0.17200
C829        C  0.95884847  0.99441021  0.61171269    -0.27600
C830        C  0.95327893  0.00040332  0.57137883     0.18400
C831        C  0.01138928  0.06470330  0.57856961     0.12400
C832        C  0.02487920  0.05075037  0.66291097    -0.11900
H833        H  0.98700798  0.00577438  0.67169925     0.12700
C834        C  0.93008095  0.98182380  0.53781083    -0.22800
H835        H  0.96634371  0.02863944  0.53074092     0.08300
C836        C  0.03413181  0.05204544  0.57082731     0.04700
C837        C  0.04987616  0.07651711  0.55917383    -0.20000
C838        C  0.04311339  0.11321322  0.55457984    -0.12300
C839        C  0.02062294  0.12595594  0.56318616     0.13400
C840        C  0.00491882  0.10139903  0.57474316    -0.22700
C841        C  0.04149701  0.01270413  0.57437353    -0.05800
H842        H  0.06709957  0.06680748  0.55257593     0.14900
C843        C  0.01313598  0.16523291  0.56201430    -0.16000
H844        H  0.98761779  0.11099839  0.58122606     0.09200
H845        H  0.93875430  0.96850786  0.51816322     0.07100
H846        H  0.91452131  0.00200271  0.52047554     0.08300
H847        H  0.91942909  0.96050420  0.54740924     0.13700
H848        H  0.02290862  0.08048599  0.66087610     0.02200
H849        H  0.04428920  0.04270303  0.65969087     0.02700
H850        H  0.02664163  0.04271984  0.69272218     0.06200
H851        H  0.05982419  0.00732117  0.56714102     0.05200
H852        H  0.02364053  0.99667540  0.55376502    -0.00600
H853        H  0.04649341  0.00364419  0.60499153     0.00900
H854        H  0.99181029  0.16932895  0.53930048     0.04600
H855        H  0.02765732  0.18328403  0.55560882     0.06500
H856        H  0.01358807  0.17360494  0.59120816     0.07400
C857        C  0.94307318  0.70178753  0.63776279    -0.22300
C858        C  0.94734189  0.72291908  0.60945760     0.09700
C859        C  0.95923666  0.70758814  0.58483203     0.10100
C860        C  0.96727262  0.67132764  0.58978063    -0.17200
C861        C  0.96405543  0.65020880  0.61924934    -0.27600
C862        C  0.95125398  0.66566275  0.64312121     0.18400
C863        C  0.94093699  0.76166613  0.60858032     0.12400
C864        C  0.96354926  0.72957958  0.55359744    -0.11900
H865        H  0.97680027  0.65973080  0.57116783     0.12700
C866        C  0.94568311  0.64454837  0.67397503    -0.22800
H867        H  0.93381292  0.71400869  0.65641968     0.08300
C868        C  0.91344399  0.77444605  0.59054450     0.04700
C869        C  0.90800968  0.81060611  0.59598860    -0.20000
C870        C  0.92948466  0.83392452  0.61933710    -0.12300
C871        C  0.95731796  0.82166441  0.63486932     0.13400
C872        C  0.96261261  0.78548709  0.62970144    -0.22700
C873        C  0.88988465  0.74973260  0.56637240    -0.05800
H874        H  0.88675439  0.82022420  0.58362539     0.14900
C875        C  0.98195835  0.84590665  0.65641374    -0.16000
H876        H  0.98376529  0.77557376  0.64293052     0.09200
H877        H  0.93378115  0.61964659  0.66062335     0.07100
H878        H  0.96561860  0.63774764  0.69852262     0.08300
H879        H  0.93328084  0.66021582  0.68695725     0.07300
H880        H  0.97778433  0.75253223  0.56752697     0.02200
H881        H  0.94324997  0.74009437  0.53271991     0.02700
H882        H  0.97279989  0.71335288  0.53650818     0.06200
H883        H  0.86971339  0.76414285  0.55407668     0.05200
H884        H  0.88787349  0.72746915  0.58496305    -0.00600
H885        H  0.89405602  0.73828570  0.54139420     0.00900
H886        H  0.99262031  0.83694800  0.68740933     0.04600
H887        H  0.97628643  0.87459727  0.65639041     0.06500
H888        H  0.99683748  0.84431210  0.64179269     0.07400
C889        C  0.03690553  0.50720830  0.75534587    -0.22300
C890        C  0.02519722  0.51814822  0.78171471     0.09700
C891        C  0.00316713  0.54297850  0.76964251     0.10100
C892        C  0.99362890  0.55692083  0.73142887    -0.17200
C893        C  0.00529658  0.54621582  0.70470482    -0.27600
C894        C  0.02709124  0.52052662  0.71678407     0.18400
C895        C  0.03596869  0.50260876  0.82166557     0.12400
C896        C  0.98938907  0.55419672  0.79683716    -0.11900
H897        H  0.97660370  0.57589177  0.72220515     0.12700
C898        C  0.04064876  0.50736447  0.68993544    -0.22800
H899        H  0.05372787  0.48789893  0.76504400     0.08300
C900        C  0.02849552  0.46755296  0.82813077     0.04700
C901        C  0.03871718  0.45416052  0.86660508    -0.20000
C902        C  0.05591589  0.47519395  0.89898956    -0.12300
C903        C  0.06360706  0.51041619  0.89223484     0.13400
C904        C  0.05361390  0.52349768  0.85352475    -0.22700
C905        C  0.00913472  0.44464831  0.79453779    -0.05800
H906        H  0.03264040  0.42730040  0.87142247     0.14900
C907        C  0.08231478  0.53446964  0.92522768    -0.16000
H908        H  0.05927850  0.55037552  0.84800497     0.09200
H909        H  0.05835156  0.48912934  0.70542645     0.07100
H910        H  0.04882958  0.53054351  0.67889757     0.08300
H911        H  0.02539203  0.49187112  0.66478663     0.07300
H912        H  0.00480471  0.56763534  0.82353515     0.02200
H913        H  0.98074690  0.53012967  0.80577817     0.02700
H914        H  0.97207284  0.57327419  0.78241590     0.06200
H915        H  0.00488121  0.41819073  0.80488252     0.05200
H916        H  0.01852778  0.43958667  0.77280697    -0.00600
H917        H  0.98897965  0.45868408  0.77975652     0.00900
H918        H  0.08680989  0.56037116  0.91402597     0.04600
H919        H  0.10248951  0.52091588  0.94142806     0.06500
H920        H  0.07212375  0.54096408  0.94570898     0.07400
loop_ 
_geom_bond_atom_site_label_1 
_geom_bond_atom_site_label_2 
_geom_bond_distance 
_geom_bond_site_symmetry_2 
_ccdc_geom_bond_type 
C1            N2   1.360       .  A
C1            N6   1.359       .  A
C1          C861   1.487       .  S
N2            C3   1.358       .  A
C3            N4   1.354       .  A
C3           C22   1.463       .  S
N4            C5   1.353       .  A
C5            N6   1.359       .  A
C5          C893   1.484   1_655  S
In7           O9   2.241       .  S
In7          O10   2.250       .  S
In7          O18   2.242       .  S
In7          O12   2.259       .  S
In7          O14   2.252       .  S
In7          O15   2.231       .  S
In7          O16   2.245       .  S
In7          O19   2.248       .  S
C8          C829   1.482       .  S
C8           O14   1.262       .  A
C8           O16   1.260       .  A
O9           C17   1.261       .  A
O10          C17   1.259       .  A
C11         C765   1.483       .  S
C11          O18   1.260       .  A
C11          O12   1.263       .  A
C13         C870   1.472       .  S
C13          O15   1.260       .  A
C13          O19   1.260       .  A
C17         C806   1.488       .  S
C20          N21   1.355       .  A
C20          N25   1.356       .  A
C20         C701   1.472   1_655  S
N21          C22   1.358       .  A
C22          N23   1.357       .  A
N23          C24   1.359       .  A
C24          N25   1.357       .  A
C24         C733   1.491       .  S
In26         O28   2.251       .  S
In26         O29   2.234       .  S
In26         O37   2.237       .  S
In26         O31   2.256       .  S
In26         O33   2.248       .  S
In26         O34   2.233       .  S
In26         O35   2.239       .  S
In26         O38   2.244       .  S
C27         C838   1.476       .  S
C27          O33   1.262       .  A
C27          O35   1.261       .  A
O28          C36   1.261       .  A
O29          C36   1.259       .  A
C30         C637   1.484       .  S
C30          O37   1.256       .  A
C30          O31   1.261       .  A
C32         C678   1.468       .  S
C32          O34   1.259       .  A
C32          O38   1.259       .  A
C36         C710   1.472       .  S
C39          N40   1.356   1_565  A
C39          N44   1.358   1_565  A
C39         C605   1.480       .  S
N40          C41   1.355       .  A
C41          N42   1.357       .  A
C41         C669   1.467   1_655  S
N42          C43   1.359       .  A
C43          N44   1.361       .  A
C43          C60   1.468       .  S
In45         O47   2.243       .  S
In45         O48   2.239       .  S
In45         O56   2.243       .  S
In45         O50   2.253       .  S
In45         O52   2.253       .  S
In45         O53   2.234       .  S
In45         O54   2.245       .  S
In45         O57   2.239       .  S
C46         C582   1.475       .  S
C46          O52   1.261       .  A
C46          O54   1.259       .  A
O47          C55   1.260       .  A
O48          C55   1.259       .  A
C49         C550   1.478       .  S
C49          O56   1.258       .  A
C49          O50   1.260       .  A
C51         C742   1.478       .  S
C51          O53   1.261       .  A
C51          O57   1.262       .  A
C55         C614   1.475       .  S
C58          N59   1.362       .  A
C58          N63   1.358   1_554  A
C58         C518   1.491   1_655  S
N59          C60   1.362       .  A
C60          N61   1.357       .  A
N61          C62   1.354   1_554  A
C62          N63   1.356       .  A
C62         C797   1.468       .  S
In64         O66   2.242   1_554  S
In64         O67   2.242   1_554  S
In64         O75   2.249       .  S
In64         O69   2.244       .  S
In64         O71   2.252       .  S
In64         O72   2.240   1_554  S
In64         O73   2.237       .  S
In64         O76   2.260       .  S
C65         C573   1.488       .  S
C65          O71   1.261       .  A
C65          O73   1.260       .  A
O66          C74   1.258       .  A
O67          C74   1.261       .  A
C68         C477   1.486       .  S
C68          O75   1.261       .  A
C68          O69   1.260       .  A
C70         C509   1.480       .  S
C70          O72   1.259   1_554  A
C70          O76   1.262       .  A
C74         C902   1.485       .  S
C77          N78   1.357       .  A
C77          N82   1.356       .  A
C77         C413   1.475       .  S
N78          C79   1.358       .  A
C79          N80   1.362       .  A
C79         C454   1.486       .  S
N80          C81   1.362       .  A
C81          N82   1.356       .  A
C81          C98   1.471       .  S
In83         O85   2.243       .  S
In83         O86   2.251       .  S
In83         O94   2.236       .  S
In83         O88   2.253       .  S
In83         O90   2.260       .  S
In83         O91   2.228       .  S
In83         O92   2.239       .  S
In83         O95   2.254       .  S
C84         C381   1.482       .  S
C84          O90   1.261       .  A
C84          O92   1.258       .  A
O85          C93   1.260       .  A
O86          C93   1.259       .  A
C87         C486   1.489       .  S
C87          O94   1.258       .  A
C87          O88   1.262       .  A
C89         C422   1.487       .  S
C89          O91   1.261       .  A
C89          O95   1.261       .  A
C93         C358   1.488       .  S
C96          N97   1.360   1_565  A
C96         N101   1.357   1_564  A
C96         C294   1.485       .  S
N97          C98   1.359       .  A
C98          N99   1.361       .  A
N99         C100   1.359   1_554  A
C100        N101   1.357       .  A
C100        C317   1.486       .  S
In102       O104   2.254       .  S
In102       O105   2.232   1_554  S
In102       O113   2.240       .  S
In102       O107   2.265       .  S
In102       O109   2.258       .  S
In102       O110   2.234   1_554  S
In102       O111   2.244       .  S
In102       O114   2.244   1_554  S
C103        C390   1.482       .  S
C103        O109   1.262       .  A
C103        O111   1.258       .  A
O104        C112   1.261       .  A
O105        C112   1.259   1_556  A
C106        C541   1.483       .  S
C106        O113   1.258       .  A
C106        O107   1.261       .  A
C108        C253   1.487       .  S
C108        O110   1.261       .  A
C108        O114   1.261       .  A
C112        C285   1.475       .  S
C115        N116   1.356       .  A
C115        N120   1.363       .  A
C115        C230   1.492       .  S
N116        C117   1.354       .  A
C117        N118   1.354       .  A
C117        C349   1.468       .  S
N118        C119   1.357       .  A
C119        N120   1.361       .  A
C119        C138   1.468       .  S
In121       O123   2.245       .  S
In121       O124   2.245       .  S
In121       O132   2.247       .  S
In121       O126   2.258       .  S
In121       O128   2.255       .  S
In121       O129   2.236       .  S
In121       O130   2.248       .  S
In121       O133   2.260       .  S
C122        C189   1.481   1_565  S
C122        O128   1.260       .  A
C122        O130   1.259       .  A
O123        C131   1.261       .  A
O124        C131   1.260       .  A
C125        C774   1.490       .  S
C125        O132   1.260       .  A
C125        O126   1.261       .  A
C127        C221   1.477       .  S
C127        O129   1.258       .  A
C127        O133   1.261       .  A
C131        C445   1.488       .  S
C134        N135   1.357       .  A
C134        N139   1.357       .  A
C134        C166   1.475       .  S
N135        C136   1.358       .  A
C136        N137   1.359       .  A
C136        C262   1.475       .  S
N137        C138   1.359       .  A
C138        N139   1.359       .  A
In140       O142   2.253       .  S
In140       O143   2.230       .  S
In140       O151   2.227       .  S
In140       O145   2.258       .  S
In140       O147   2.257       .  S
In140       O148   2.230       .  S
In140       O149   2.235       .  S
In140       O152   2.260       .  S
C141        C198   1.487       .  S
C141        O147   1.262       .  A
C141        O149   1.259       .  A
O142        C150   1.260       .  A
O143        C150   1.260       .  A
C144        C646   1.487       .  S
C144        O151   1.258       .  A
C144        O145   1.263       .  A
C146        C326   1.491       .  S
C146        O148   1.258       .  A
C146        O152   1.263       .  A
C150        C157   1.484       .  S
C153        C154   1.400       .  A
C153        C158   1.406       .  A
C153        H163   1.084       .  S
C154        C159   1.478       .  S
C154        C155   1.408       .  A
C155        C156   1.400       .  A
C155        C160   1.507       .  S
C156        C157   1.406       .  A
C156        H161   1.083       .  S
C157        C158   1.419       .  A
C158        C162   1.507       .  S
C159        C164   1.410       .  A
C159        C168   1.400       .  A
C160        H176   1.110       .  S
C160        H177   1.110       .  S
C160        H178   1.111       .  S
C162        H173   1.111       .  S
C162        H174   1.111       .  S
C162        H175   1.110       .  S
C164        C165   1.403       .  A
C164        C169   1.506       .  S
C165        C166   1.403       .  A
C165        H170   1.083       .  S
C166        C167   1.415       .  A
C167        C168   1.402       .  A
C167        C171   1.506       .  S
C168        H172   1.085       .  S
C169        H179   1.110       .  S
C169        H180   1.110       .  S
C169        H181   1.110       .  S
C171        H182   1.111       .  S
C171        H183   1.106       .  S
C171        H184   1.110       .  S
C185        C186   1.400       .  A
C185        C190   1.405       .  A
C185        H195   1.082       .  S
C186        C191   1.481       .  S
C186        C187   1.409       .  A
C187        C188   1.403   1_545  A
C187        C192   1.507   1_545  S
C188        C189   1.406   1_565  A
C188        H193   1.085       .  S
C189        C190   1.420       .  A
C190        C194   1.509       .  S
C191        C196   1.407       .  A
C191        C200   1.401       .  A
C192        H208   1.110       .  S
C192        H209   1.110   1_565  S
C192        H210   1.111       .  S
C194        H205   1.110       .  S
C194        H206   1.110       .  S
C194        H207   1.105       .  S
C196        C197   1.402       .  A
C196        C201   1.507       .  S
C197        C198   1.408       .  A
C197        H202   1.083       .  S
C198        C199   1.419       .  A
C199        C200   1.406       .  A
C199        C203   1.507       .  S
C200        H204   1.084       .  S
C201        H211   1.111       .  S
C201        H212   1.110       .  S
C201        H213   1.110       .  S
C203        H214   1.111       .  S
C203        H215   1.110       .  S
C203        H216   1.110       .  S
C217        C218   1.400       .  A
C217        C222   1.402       .  A
C217        H227   1.084       .  S
C218        C223   1.481       .  S
C218        C219   1.411       .  A
C219        C220   1.405       .  A
C219        C224   1.506       .  S
C220        C221   1.405       .  A
C220        H225   1.084       .  S
C221        C222   1.418       .  A
C222        C226   1.509       .  S
C223        C228   1.409       .  A
C223        C232   1.398       .  A
C224        H240   1.110       .  S
C224        H241   1.110       .  S
C224        H242   1.111       .  S
C226        H237   1.111       .  S
C226        H238   1.110       .  S
C226        H239   1.106       .  S
C228        C229   1.404       .  A
C228        C233   1.507       .  S
C229        C230   1.408       .  A
C229        H234   1.084       .  S
C230        C231   1.424       .  A
C231        C232   1.404       .  A
C231        C235   1.509       .  S
C232        H236   1.084       .  S
C233        H243   1.111       .  S
C233        H244   1.110       .  S
C233        H245   1.110       .  S
C235        H246   1.109       .  S
C235        H247   1.110       .  S
C235        H248   1.111       .  S
C249        C250   1.399       .  A
C249        C254   1.404       .  A
C249        H259   1.085       .  S
C250        C255   1.477       .  S
C250        C251   1.407       .  A
C251        C252   1.401       .  A
C251        C256   1.507       .  S
C252        C253   1.408       .  A
C252        H257   1.084       .  S
C253        C254   1.421       .  A
C254        C258   1.507       .  S
C255        C260   1.409       .  A
C255        C264   1.399       .  A
C256        H272   1.110       .  S
C256        H273   1.110       .  S
C256        H274   1.111       .  S
C258        H269   1.110       .  S
C258        H270   1.111       .  S
C258        H271   1.110       .  S
C260        C261   1.403       .  A
C260        C265   1.506       .  S
C261        C262   1.405       .  A
C261        H266   1.084       .  S
C262        C263   1.416       .  A
C263        C264   1.400       .  A
C263        C267   1.506       .  S
C264        H268   1.086       .  S
C265        H275   1.111       .  S
C265        H276   1.110       .  S
C265        H277   1.110       .  S
C267        H278   1.111       .  S
C267        H279   1.105       .  S
C267        H280   1.111       .  S
C281        C282   1.400       .  A
C281        C286   1.404       .  A
C281        H291   1.085       .  S
C282        C287   1.478       .  S
C282        C283   1.409       .  A
C283        C284   1.401       .  A
C283        C288   1.507   1_554  S
C284        C285   1.404       .  A
C284        H289   1.084   1_554  S
C285        C286   1.418       .  A
C286        C290   1.508       .  S
C287        C292   1.408       .  A
C287        C296   1.399       .  A
C288        H304   1.110       .  S
C288        H305   1.110       .  S
C288        H306   1.111       .  S
C290        H301   1.110       .  S
C290        H302   1.111       .  S
C290        H303   1.105       .  S
C292        C293   1.404       .  A
C292        C297   1.506       .  S
C293        C294   1.408       .  A
C293        H298   1.084       .  S
C294        C295   1.420       .  A
C295        C296   1.402       .  A
C295        C299   1.508   1_554  S
C296        H300   1.085   1_554  S
C297        H307   1.111       .  S
C297        H308   1.110       .  S
C297        H309   1.110       .  S
C299        H310   1.111   1_556  S
C299        H311   1.108       .  S
C299        H312   1.111       .  S
C313        C314   1.401       .  A
C313        C318   1.406       .  A
C313        H323   1.084       .  S
C314        C319   1.483       .  S
C314        C315   1.409       .  A
C315        C316   1.403       .  A
C315        C320   1.507       .  S
C316        C317   1.407       .  A
C316        H321   1.083       .  S
C317        C318   1.421       .  A
C318        C322   1.508       .  S
C319        C324   1.409       .  A
C319        C328   1.398       .  A
C320        H336   1.110       .  S
C320        H337   1.111       .  S
C320        H338   1.111       .  S
C322        H333   1.111       .  S
C322        H334   1.110       .  S
C322        H335   1.105       .  S
C324        C325   1.405       .  A
C324        C329   1.506       .  S
C325        C326   1.408       .  A
C325        H330   1.084       .  S
C326        C327   1.423       .  A
C327        C328   1.405       .  A
C327        C331   1.508       .  S
C328        H332   1.084       .  S
C329        H339   1.111       .  S
C329        H340   1.110       .  S
C329        H341   1.110       .  S
C331        H342   1.111       .  S
C331        H343   1.110       .  S
C331        H344   1.110       .  S
C345        C346   1.401       .  A
C345        C350   1.401       .  A
C345        H355   1.084       .  S
C346        C351   1.477       .  S
C346        C347   1.410       .  A
C347        C348   1.403       .  A
C347        C352   1.506       .  S
C348        C349   1.403       .  A
C348        H353   1.084       .  S
C349        C350   1.414       .  A
C350        C354   1.508       .  S
C351        C356   1.407       .  A
C351        C360   1.399       .  A
C352        H368   1.110       .  S
C352        H369   1.110       .  S
C352        H370   1.111       .  S
C354        H365   1.110       .  S
C354        H366   1.111       .  S
C354        H367   1.108       .  S
C356        C357   1.402       .  A
C356        C361   1.507       .  S
C357        C358   1.408       .  A
C357        H362   1.083       .  S
C358        C359   1.421       .  A
C359        C360   1.405       .  A
C359        C363   1.507       .  S
C360        H364   1.083       .  S
C361        H371   1.111       .  S
C361        H372   1.110       .  S
C361        H373   1.110       .  S
C363        H374   1.110       .  S
C363        H375   1.110       .  S
C363        H376   1.111       .  S
C377        C378   1.400       .  A
C377        C382   1.404       .  A
C377        H387   1.084       .  S
C378        C383   1.483       .  S
C378        C379   1.410       .  A
C379        C380   1.406       .  A
C379        C384   1.506       .  S
C380        C381   1.406       .  A
C380        H385   1.084       .  S
C381        C382   1.417       .  A
C382        C386   1.508       .  S
C383        C388   1.410       .  A
C383        C392   1.400       .  A
C384        H400   1.110       .  S
C384        H401   1.111       .  S
C384        H402   1.111       .  S
C386        H397   1.109       .  S
C386        H398   1.111       .  S
C386        H399   1.111       .  S
C388        C389   1.404       .  A
C388        C393   1.507       .  S
C389        C390   1.404       .  A
C389        H394   1.084       .  S
C390        C391   1.421       .  A
C391        C392   1.405       .  A
C391        C395   1.509   1_554  S
C392        H396   1.084   1_554  S
C393        H403   1.110       .  S
C393        H404   1.110       .  S
C393        H405   1.110       .  S
C395        H406   1.111       .  S
C395        H407   1.105       .  S
C395        H408   1.110       .  S
C409        C410   1.399       .  A
C409        C414   1.401       .  A
C409        H419   1.084       .  S
C410        C415   1.477       .  S
C410        C411   1.409       .  A
C411        C412   1.403       .  A
C411        C416   1.506       .  S
C412        C413   1.405       .  A
C412        H417   1.084       .  S
C413        C414   1.418       .  A
C414        C418   1.509       .  S
C415        C420   1.408       .  A
C415        C424   1.400       .  A
C416        H432   1.110       .  S
C416        H433   1.110       .  S
C416        H434   1.110       .  S
C418        H429   1.111       .  S
C418        H430   1.110       .  S
C418        H431   1.106       .  S
C420        C421   1.398       .  A
C420        C425   1.508       .  S
C421        C422   1.406       .  A
C421        H426   1.083       .  S
C422        C423   1.421       .  A
C423        C424   1.408       .  A
C423        C427   1.507       .  S
C424        H428   1.084       .  S
C425        H435   1.110       .  S
C425        H436   1.110       .  S
C425        H437   1.110       .  S
C427        H438   1.110       .  S
C427        H439   1.110       .  S
C427        H440   1.111       .  S
C441        C442   1.400       .  A
C441        C446   1.406       .  A
C441        H451   1.085       .  S
C442        C447   1.483   1_565  S
C442        C443   1.409   1_565  A
C443        C444   1.402       .  A
C443        C448   1.507       .  S
C444        C445   1.407   1_545  A
C444        H449   1.083       .  S
C445        C446   1.421       .  A
C446        C450   1.507       .  S
C447        C452   1.410       .  A
C447        C456   1.400       .  A
C448        H464   1.110       .  S
C448        H465   1.111       .  S
C448        H466   1.111       .  S
C450        H461   1.110       .  S
C450        H462   1.111       .  S
C450        H463   1.110       .  S
C452        C453   1.405       .  A
C452        C457   1.506   1_545  S
C453        C454   1.406       .  A
C453        H458   1.084       .  S
C454        C455   1.420       .  A
C455        C456   1.405       .  A
C455        C459   1.508       .  S
C456        H460   1.085       .  S
C457        H467   1.110       .  S
C457        H468   1.110       .  S
C457        H469   1.111       .  S
C459        H470   1.110       .  S
C459        H471   1.109       .  S
C459        H472   1.111       .  S
C473        C474   1.400       .  A
C473        C478   1.405       .  A
C473        H483   1.085       .  S
C474        C479   1.481       .  S
C474        C475   1.409       .  A
C475        C476   1.404       .  A
C475        C480   1.506       .  S
C476        C477   1.407       .  A
C476        H481   1.083       .  S
C477        C478   1.419       .  A
C478        C482   1.508       .  S
C479        C484   1.409       .  A
C479        C488   1.398       .  A
C480        H496   1.110       .  S
C480        H497   1.110       .  S
C480        H498   1.111       .  S
C482        H493   1.111       .  S
C482        H494   1.109       .  S
C482        H495   1.111       .  S
C484        C485   1.403       .  A
C484        C489   1.506       .  S
C485        C486   1.408       .  A
C485        H490   1.083       .  S
C486        C487   1.422       .  A
C487        C488   1.404       .  A
C487        C491   1.508       .  S
C488        H492   1.086       .  S
C489        H499   1.111       .  S
C489        H500   1.110       .  S
C489        H501   1.110   1_554  S
C491        H502   1.111       .  S
C491        H503   1.110       .  S
C491        H504   1.110       .  S
C505        C506   1.400       .  A
C505        C510   1.403       .  A
C505        H515   1.084   1_455  S
C506        C511   1.483       .  S
C506        C507   1.411       .  A
C507        C508   1.406       .  A
C507        C512   1.506       .  S
C508        C509   1.405       .  A
C508        H513   1.084       .  S
C509        C510   1.418       .  A
C510        C514   1.508   1_454  S
C511        C516   1.410       .  A
C511        C520   1.399       .  A
C512        H528   1.110       .  S
C512        H529   1.110       .  S
C512        H530   1.111       .  S
C514        H525   1.111   1_556  S
C514        H526   1.110       .  S
C514        H527   1.107   1_655  S
C516        C517   1.406       .  A
C516        C521   1.506       .  S
C517        C518   1.408       .  A
C517        H522   1.083   1_455  S
C518        C519   1.422       .  A
C519        C520   1.404       .  A
C519        C523   1.509   1_554  S
C520        H524   1.084   1_554  S
C521        H531   1.111   1_455  S
C521        H532   1.110   1_455  S
C521        H533   1.110       .  S
C523        H534   1.109       .  S
C523        H535   1.110       .  S
C523        H536   1.111       .  S
C537        C538   1.401       .  A
C537        C542   1.406       .  A
C537        H547   1.084       .  S
C538        C543   1.482       .  S
C538        C539   1.409       .  A
C539        C540   1.402       .  A
C539        C544   1.507       .  S
C540        C541   1.406       .  A
C540        H545   1.084       .  S
C541        C542   1.420       .  A
C542        C546   1.508       .  S
C543        C548   1.410       .  A
C543        C552   1.401       .  A
C544        H560   1.110       .  S
C544        H561   1.110       .  S
C544        H562   1.111       .  S
C546        H557   1.110       .  S
C546        H558   1.111       .  S
C546        H559   1.104       .  S
C548        C549   1.403       .  A
C548        C553   1.506       .  S
C549        C550   1.406       .  A
C549        H554   1.084       .  S
C550        C551   1.417       .  A
C551        C552   1.403       .  A
C551        C555   1.508       .  S
C552        H556   1.084       .  S
C553        H563   1.111       .  S
C553        H564   1.110       .  S
C553        H565   1.110       .  S
C555        H566   1.110       .  S
C555        H567   1.106       .  S
C555        H568   1.111       .  S
C569        C570   1.400   1_455  A
C569        C574   1.406       .  A
C569        H579   1.084       .  S
C570        C575   1.481       .  S
C570        C571   1.408       .  A
C571        C572   1.402   1_655  A
C571        C576   1.507       .  S
C572        C573   1.408       .  A
C572        H577   1.084   1_455  S
C573        C574   1.420       .  A
C574        C578   1.507       .  S
C575        C580   1.410       .  A
C575        C584   1.401       .  A
C576        H592   1.110       .  S
C576        H593   1.110       .  S
C576        H594   1.111       .  S
C578        H589   1.110       .  S
C578        H590   1.111       .  S
C578        H591   1.110       .  S
C580        C581   1.403       .  A
C580        C585   1.506       .  S
C581        C582   1.403       .  A
C581        H586   1.084       .  S
C582        C583   1.417       .  A
C583        C584   1.404       .  A
C583        C587   1.508       .  S
C584        H588   1.085       .  S
C585        H595   1.111       .  S
C585        H596   1.110   1_655  S
C585        H597   1.111       .  S
C587        H598   1.111       .  S
C587        H599   1.105       .  S
C587        H600   1.110       .  S
C601        C602   1.400       .  A
C601        C606   1.404       .  A
C601        H611   1.084       .  S
C602        C607   1.477       .  S
C602        C603   1.408       .  A
C603        C604   1.400       .  A
C603        C608   1.508       .  S
C604        C605   1.406       .  A
C604        H609   1.084   1_655  S
C605        C606   1.420       .  A
C606        C610   1.508       .  S
C607        C612   1.410       .  A
C607        C616   1.399       .  A
C608        H624   1.110   1_655  S
C608        H625   1.110       .  S
C608        H626   1.111   1_655  S
C610        H621   1.111       .  S
C610        H622   1.111       .  S
C610        H623   1.104       .  S
C612        C613   1.401       .  A
C612        C617   1.507       .  S
C613        C614   1.404       .  A
C613        H618   1.084       .  S
C614        C615   1.418       .  A
C615        C616   1.402       .  A
C615        C619   1.508       .  S
C616        H620   1.085       .  S
C617        H627   1.111       .  S
C617        H628   1.110       .  S
C617        H629   1.110       .  S
C619        H630   1.110       .  S
C619        H631   1.105       .  S
C619        H632   1.111       .  S
C633        C634   1.399       .  A
C633        C638   1.404       .  A
C633        H643   1.084       .  S
C634        C639   1.480       .  S
C634        C635   1.410       .  A
C635        C636   1.402       .  A
C635        C640   1.507       .  S
C636        C637   1.405       .  A
C636        H641   1.084       .  S
C637        C638   1.421       .  A
C638        C642   1.508       .  S
C639        C644   1.410       .  A
C639        C648   1.398       .  A
C640        H656   1.110       .  S
C640        H657   1.110       .  S
C640        H658   1.110       .  S
C642        H653   1.110       .  S
C642        H654   1.111       .  S
C642        H655   1.110       .  S
C644        C645   1.404       .  A
C644        C649   1.507       .  S
C645        C646   1.407       .  A
C645        H650   1.084       .  S
C646        C647   1.422       .  A
C647        C648   1.402       .  A
C647        C651   1.508       .  S
C648        H652   1.084       .  S
C649        H659   1.111       .  S
C649        H660   1.110       .  S
C649        H661   1.110       .  S
C651        H662   1.111       .  S
C651        H663   1.110       .  S
C651        H664   1.110       .  S
C665        C666   1.399       .  A
C665        C670   1.400       .  A
C665        H675   1.083       .  S
C666        C671   1.475       .  S
C666        C667   1.410       .  A
C667        C668   1.403   1_455  A
C667        C672   1.506   1_455  S
C668        C669   1.402   1_655  A
C668        H673   1.083       .  S
C669        C670   1.415       .  A
C670        C674   1.508       .  S
C671        C676   1.410       .  A
C671        C680   1.400       .  A
C672        H688   1.110   1_655  S
C672        H689   1.111       .  S
C672        H690   1.111       .  S
C674        H685   1.110   1_545  S
C674        H686   1.111       .  S
C674        H687   1.108       .  S
C676        C677   1.401       .  A
C676        C681   1.506       .  S
C677        C678   1.402       .  A
C677        H682   1.085       .  S
C678        C679   1.415       .  A
C679        C680   1.401       .  A
C679        C683   1.508       .  S
C680        H684   1.085       .  S
C681        H691   1.111       .  S
C681        H692   1.110       .  S
C681        H693   1.110   1_455  S
C683        H694   1.111       .  S
C683        H695   1.107       .  S
C683        H696   1.110       .  S
C697        C698   1.400   1_655  A
C697        C702   1.400       .  A
C697        H707   1.085       .  S
C698        C703   1.477       .  S
C698        C699   1.410       .  A
C699        C700   1.404       .  A
C699        C704   1.506       .  S
C700        C701   1.404       .  A
C700        H705   1.084       .  S
C701        C702   1.414   1_455  A
C702        C706   1.508       .  S
C703        C708   1.409       .  A
C703        C712   1.400       .  A
C704        H720   1.110       .  S
C704        H721   1.110       .  S
C704        H722   1.111       .  S
C706        H717   1.111       .  S
C706        H718   1.110       .  S
C706        H719   1.108       .  S
C708        C709   1.404       .  A
C708        C713   1.506       .  S
C709        C710   1.404       .  A
C709        H714   1.084       .  S
C710        C711   1.416       .  A
C711        C712   1.401       .  A
C711        C715   1.508       .  S
C712        H716   1.085       .  S
C713        H723   1.111       .  S
C713        H724   1.110   1_455  S
C713        H725   1.110       .  S
C715        H726   1.110       .  S
C715        H727   1.107       .  S
C715        H728   1.111       .  S
C729        C730   1.397       .  A
C729        C734   1.402       .  A
C729        H739   1.085       .  S
C730        C735   1.475       .  S
C730        C731   1.406       .  A
C731        C732   1.401       .  A
C731        C736   1.507       .  S
C732        C733   1.410       .  A
C732        H737   1.084       .  S
C733        C734   1.424       .  A
C734        C738   1.509       .  S
C735        C740   1.408       .  A
C735        C744   1.398       .  A
C736        H752   1.110       .  S
C736        H753   1.110       .  S
C736        H754   1.111       .  S
C738        H749   1.111       .  S
C738        H750   1.110       .  S
C738        H751   1.110   1_655  S
C740        C741   1.401       .  A
C740        C745   1.507       .  S
C741        C742   1.407       .  A
C741        H746   1.084       .  S
C742        C743   1.419       .  A
C743        C744   1.401       .  A
C743        C747   1.509       .  S
C744        H748   1.085       .  S
C745        H755   1.111       .  S
C745        H756   1.110       .  S
C745        H757   1.110       .  S
C747        H758   1.111       .  S
C747        H759   1.105       .  S
C747        H760   1.111       .  S
C761        C762   1.400       .  A
C761        C766   1.404       .  A
C761        H771   1.085       .  S
C762        C767   1.484       .  S
C762        C763   1.410       .  A
C763        C764   1.406       .  A
C763        C768   1.506   1_565  S
C764        C765   1.406       .  A
C764        H769   1.084       .  S
C765        C766   1.420       .  A
C766        C770   1.509       .  S
C767        C772   1.409       .  A
C767        C776   1.401       .  A
C768        H784   1.110       .  S
C768        H785   1.110       .  S
C768        H786   1.111       .  S
C770        H781   1.111       .  S
C770        H782   1.110       .  S
C770        H783   1.105       .  S
C772        C773   1.403       .  A
C772        C777   1.507       .  S
C773        C774   1.408       .  A
C773        H778   1.085       .  S
C774        C775   1.420       .  A
C775        C776   1.408       .  A
C775        C779   1.507       .  S
C776        H780   1.084       .  S
C777        H787   1.111       .  S
C777        H788   1.110       .  S
C777        H789   1.110       .  S
C779        H790   1.111       .  S
C779        H791   1.111       .  S
C779        H792   1.110       .  S
C793        C794   1.400       .  A
C793        C798   1.400       .  A
C793        H803   1.085       .  S
C794        C799   1.478   1_545  S
C794        C795   1.411       .  A
C795        C796   1.404       .  A
C795        C800   1.506       .  S
C796        C797   1.402       .  A
C796        H801   1.085       .  S
C797        C798   1.414       .  A
C798        C802   1.508   1_655  S
C799        C804   1.408   1_565  A
C799        C808   1.400       .  A
C800        H816   1.110   1_545  S
C800        H817   1.110       .  S
C800        H818   1.111       .  S
C802        H813   1.110       .  S
C802        H814   1.111       .  S
C802        H815   1.108       .  S
C804        C805   1.400       .  A
C804        C809   1.507       .  S
C805        C806   1.406   1_545  A
C805        H810   1.084       .  S
C806        C807   1.422       .  A
C807        C808   1.407       .  A
C807        C811   1.507       .  S
C808        H812   1.084       .  S
C809        H819   1.111       .  S
C809        H820   1.110       .  S
C809        H821   1.110       .  S
C811        H822   1.110       .  S
C811        H823   1.110       .  S
C811        H824   1.111       .  S
C825        C826   1.400       .  A
C825        C830   1.404       .  A
C825        H835   1.084       .  S
C826        C831   1.481   1_655  S
C826        C827   1.409   1_655  A
C827        C828   1.404   1_455  A
C827        C832   1.507       .  S
C828        C829   1.406   1_545  A
C828        H833   1.084       .  S
C829        C830   1.419   1_565  A
C830        C834   1.508   1_545  S
C831        C836   1.411       .  A
C831        C840   1.400       .  A
C832        H848   1.110       .  S
C832        H849   1.110       .  S
C832        H850   1.111       .  S
C834        H845   1.111       .  S
C834        H846   1.110   1_565  S
C834        H847   1.105       .  S
C836        C837   1.404       .  A
C836        C841   1.506       .  S
C837        C838   1.404       .  A
C837        H842   1.084       .  S
C838        C839   1.417       .  A
C839        C840   1.403       .  A
C839        C843   1.509       .  S
C840        H844   1.085   1_455  S
C841        H851   1.111       .  S
C841        H852   1.110   1_545  S
C841        H853   1.110       .  S
C843        H854   1.110   1_455  S
C843        H855   1.107       .  S
C843        H856   1.111       .  S
C857        C858   1.398       .  A
C857        C862   1.402       .  A
C857        H867   1.085       .  S
C858        C863   1.477       .  S
C858        C859   1.407       .  A
C859        C860   1.404       .  A
C859        C864   1.506       .  S
C860        C861   1.409       .  A
C860        H865   1.084       .  S
C861        C862   1.420       .  A
C862        C866   1.508       .  S
C863        C868   1.410       .  A
C863        C872   1.400       .  A
C864        H880   1.110       .  S
C864        H881   1.110       .  S
C864        H882   1.111       .  S
C866        H877   1.110       .  S
C866        H878   1.109       .  S
C866        H879   1.111       .  S
C868        C869   1.403       .  A
C868        C873   1.506       .  S
C869        C870   1.404       .  A
C869        H874   1.084       .  S
C870        C871   1.415       .  A
C871        C872   1.400       .  A
C871        C875   1.508       .  S
C872        H876   1.084       .  S
C873        H883   1.111       .  S
C873        H884   1.110       .  S
C873        H885   1.110       .  S
C875        H886   1.110       .  S
C875        H887   1.107       .  S
C875        H888   1.111       .  S
C889        C890   1.399       .  A
C889        C894   1.403       .  A
C889        H899   1.084       .  S
C890        C895   1.477       .  S
C890        C891   1.408       .  A
C891        C892   1.401   1_455  A
C891        C896   1.507   1_455  S
C892        C893   1.406   1_655  A
C892        H897   1.083       .  S
C893        C894   1.421       .  A
C894        C898   1.509       .  S
C895        C900   1.408       .  A
C895        C904   1.400       .  A
C896        H912   1.110   1_655  S
C896        H913   1.111       .  S
C896        H914   1.111       .  S
C898        H909   1.111       .  S
C898        H910   1.110       .  S
C898        H911   1.110       .  S
C900        C901   1.400       .  A
C900        C905   1.507       .  S
C901        C902   1.407       .  A
C901        H906   1.084       .  S
C902        C903   1.421       .  A
C903        C904   1.404       .  A
C903        C907   1.508       .  S
C904        H908   1.084       .  S
C905        H915   1.111       .  S
C905        H916   1.110       .  S
C905        H917   1.111   1_455  S
C907        H918   1.111       .  S
C907        H919   1.110       .  S
C907        H920   1.110       .  S
