geometry optimzed in LAMMPS
_audit_creation_date              2020-11-30 
_audit_creation_method            'lammps2cif' 
_symmetry_space_group_name_H-M    'P1' 
_symmetry_Int_Tables_number       1 
_symmetry_cell_setting            triclinic 
loop_ 
_symmetry_equiv_pos_as_xyz 
  x,y,z 
_cell_length_a                    37.28493154 
_cell_length_b                    40.81907105694434 
_cell_length_c                    44.97124761281067 
_cell_angle_alpha                 89.82276829145982 
_cell_angle_beta                  89.92254174793055 
_cell_angle_gamma                 90.05678454911562 
loop_ 
_atom_site_label 
_atom_site_type_symbol 
_atom_site_fract_x 
_atom_site_fract_y 
_atom_site_fract_z 
_atom_site_charge 
C1          C  0.17957433  0.33893711  0.25396651     0.79800
N2          N  0.16353748  0.36847205  0.24944335    -0.78500
C3          C  0.12769314  0.37017744  0.24494847     0.82300
N4          N  0.10763668  0.34259351  0.24606665    -0.78400
C5          C  0.12286687  0.31314829  0.25158021     0.82400
N6          N  0.15902167  0.31123639  0.25565746    -0.80100
C7          C  0.18026649  0.55633485  0.24938320     0.79800
N8          N  0.16462582  0.52666674  0.24417264    -0.78500
C9          C  0.12840145  0.52423920  0.24196245     0.82300
N10         N  0.10784765  0.55130505  0.24497413    -0.78400
C11         C  0.12283950  0.58076533  0.25055811     0.82400
N12         N  0.15905028  0.58318953  0.25334831    -0.80100
C13         C  0.45085145  0.56001188  0.25262052     0.79800
N14         N  0.46544900  0.52962846  0.24934674    -0.78500
C15         C  0.00154700  0.52599879  0.24875394     0.82300
N16         N  0.02297821  0.55255506  0.25164169    -0.78400
C17         C  0.00891310  0.58280645  0.25531360     0.82400
N18         N  0.47268250  0.58663263  0.25595712    -0.80100
O19         O  0.10079293  0.41427506  0.26938753    -0.74800
O20         O  0.03024208  0.48166881  0.27189775    -0.74800
O21         O  0.02944681  0.41453560  0.27292095    -0.74900
O22         O  0.10151199  0.48092391  0.26803945    -0.74900
O23         O  0.09789244  0.48041757  0.21845847    -0.74900
O24         O  0.02566803  0.41350901  0.22335973    -0.74800
O25         O  0.02632908  0.48118170  0.22233445    -0.74800
O26         O  0.09705529  0.41286683  0.21981806    -0.74900
Ni27       Ni  0.06556109  0.44787474  0.27228047     1.25400
Ni28       Ni  0.06156807  0.44696905  0.21916072     1.25400
C29         C  0.10897960  0.40139769  0.24444035     0.87400
C30         C  0.01860346  0.49389471  0.24756100     0.87300
C31         C  0.01765293  0.40168722  0.24892107     0.87300
C32         C  0.11000386  0.49272875  0.24260274     0.87500
C33         C  0.45022834  0.33613993  0.26084212     0.79800
N34         N  0.46463059  0.36632872  0.25555011    -0.78500
C35         C  0.00036605  0.36967816  0.25086365     0.82300
N36         N  0.02178111  0.34295477  0.25132697    -0.78400
C37         C  0.00817829  0.31285238  0.25690364     0.82400
N38         N  0.47231085  0.30941941  0.26210329    -0.80100
C39         C  0.06782243  0.24179803  0.28383312     0.86100
C40         C  0.10075238  0.26434557  0.27967985    -0.54100
C41         C  0.09889792  0.28464714  0.25566783     0.09000
C42         C  0.06480882  0.28013143  0.23706239     0.20000
C43         C  0.03459593  0.26450547  0.28288435    -0.54800
C44         C  0.03343683  0.28501163  0.25896334     0.09100
C45         C  0.06424986  0.22342023  0.25395335    -0.54400
C46         C  0.06401580  0.24339931  0.22941027     0.09700
H47         H  0.12252318  0.26572651  0.29575221     0.14200
H48         H  0.06381145  0.29657029  0.21734402     0.00000
H49         H  0.01456254  0.26536957  0.30041193     0.14500
H50         H  0.05997366  0.19752368  0.25165199     0.14300
C51         C  0.06993670  0.65022542  0.28679180     0.86100
C52         C  0.03546998  0.62902543  0.28420055    -0.54100
C53         C  0.03383178  0.61054810  0.25903104     0.09000
C54         C  0.06540312  0.61610318  0.23779279     0.20000
C55         C  0.10149629  0.62677084  0.28169317    -0.54800
C56         C  0.09905305  0.60879223  0.25641498     0.09100
C57         C  0.06791139  0.67115793  0.25819763    -0.54400
C58         C  0.06589074  0.65346045  0.23238267     0.09700
H59         H  0.01487635  0.62763995  0.30123971     0.14200
H60         H  0.06326889  0.60117617  0.21726426     0.00000
H61         H  0.12293306  0.62330801  0.29776626     0.14500
H62         H  0.06641025  0.69769025  0.25816252     0.14300
C63         C  0.06025726  0.12001856  0.48104938     0.79800
N64         N  0.06150570  0.08688433  0.48250266    -0.78500
C65         C  0.06087293  0.07147935  0.00926588     0.82300
N66         N  0.05971829  0.08940104  0.03471087    -0.78400
C67         C  0.05841849  0.12273443  0.03344148     0.82400
N68         N  0.05843456  0.13781660  0.00643990    -0.80100
C69         C  0.07038625  0.77305674  0.48288050     0.79800
N70         N  0.06787437  0.75647019  0.00898550    -0.78500
C71         C  0.06587247  0.77312391  0.03500437     0.82300
N72         N  0.06595721  0.80646422  0.03469052    -0.78400
C73         C  0.06901484  0.82352898  0.00874792     0.82400
N74         N  0.07151965  0.80633120  0.48296162    -0.80100
C75         C  0.06943991  0.86053914  0.00849900     0.01000
C76         C  0.08119012  0.87867381  0.03382617     0.03800
C77         C  0.08079099  0.91319189  0.03356864    -0.12300
C78         C  0.06936664  0.93029702  0.00825109     0.23100
C79         C  0.05868623  0.91308082  0.48280888    -0.12800
C80         C  0.05804879  0.87853333  0.48288011     0.04500
C81         C  0.06733081  0.96659227  0.00885109     0.26900
C82         C  0.03464136  0.98202938  0.01595259    -0.13500
C83         C  0.03248345  0.01643885  0.01637942     0.05000
C84         C  0.06323313  0.03546411  0.01039476    -0.09000
C85         C  0.09605228  0.01999096  0.50382765     0.05800
C86         C  0.09806526  0.98560539  0.50287116    -0.13900
Br87       Br  0.04471252  0.93750924  0.44775773    -0.05900
Br88       Br  0.09917263  0.85810025  0.06946828    -0.00300
Br89       Br  0.48708926  0.03740412  0.02386068     0.00100
Br90       Br  0.14285430  0.96440076  0.49344876    -0.04300
Br91       Br  0.03905808  0.85762923  0.44772607     0.00200
Br92       Br  0.09596236  0.93780647  0.06808985    -0.03600
Br93       Br  0.99294233  0.95580480  0.02517044    -0.04400
Br94       Br  0.13839873  0.04601472  0.49660140    -0.00500
C95         C  0.07140362  0.75506021  0.45446261     0.01000
C96         C  0.10222192  0.73719250  0.44644161     0.03800
C97         C  0.10332256  0.72033422  0.41918819    -0.12300
C98         C  0.07371665  0.72153349  0.39973175     0.23100
C99         C  0.04297287  0.73953739  0.40767631    -0.12800
C100        C  0.04154177  0.75574854  0.43524493     0.04500
C101        C  0.07454460  0.70304787  0.37131422     0.26900
C102        C  0.09039113  0.71691486  0.34584866    -0.13500
C103        C  0.09175117  0.69911089  0.31903982     0.05000
C104        C  0.07403604  0.66827065  0.31674631    -0.09500
C105        C  0.06411186  0.65250955  0.34389589     0.05800
C106        C  0.06256711  0.67042897  0.37056892    -0.13900
Br107      Br  0.00301287  0.74206229  0.38056365    -0.05900
Br108      Br  0.14307636  0.73616558  0.47269152    -0.00300
Br109      Br  0.12518716  0.71418677  0.28903748     0.00100
Br110      Br  0.04501700  0.65006058  0.40661320    -0.04300
Br111      Br  0.99782932  0.77705262  0.44750765     0.00200
Br112      Br  0.14541889  0.69566734  0.40827911    -0.03600
Br113      Br  0.11160979  0.76000364  0.34832338    -0.04400
Br114      Br  0.05891650  0.60535543  0.34668493    -0.00500
C115        C  0.06454544  0.75512571  0.06359910     0.01000
C116        C  0.03522096  0.73456508  0.07044614     0.03800
C117        C  0.03393005  0.71789769  0.09793242    -0.12300
C118        C  0.06160917  0.72220989  0.11894112     0.23100
C119        C  0.09086095  0.74283719  0.11206682    -0.12800
C120        C  0.09291983  0.75826312  0.08409889     0.04500
C121        C  0.06120500  0.70356495  0.14746895     0.26900
C122        C  0.03809497  0.71275146  0.17078512    -0.13500
C123        C  0.03747693  0.69457157  0.19747025     0.05000
C124        C  0.06286336  0.66931671  0.20241059    -0.09500
C125        C  0.08618605  0.66037720  0.17891998     0.05800
C126        C  0.08425865  0.67656673  0.15126598    -0.13900
Br127      Br  0.12827174  0.74988438  0.14101327    -0.05900
Br128      Br  0.99686711  0.72905557  0.04212779    -0.00300
Br129      Br  0.99971099  0.70284456  0.22593333     0.00100
Br130      Br  0.11348082  0.66192604  0.11834908    -0.04300
Br131      Br  0.13650282  0.78048841  0.07267765     0.00200
Br132      Br  0.99451969  0.68872082  0.10668590    -0.03600
Br133      Br  0.00808722  0.75097295  0.16646961    -0.04400
Br134      Br  0.12264439  0.62753734  0.18431368    -0.00500
C135        C  0.07040539  0.22229798  0.31339340     0.01000
C136        C  0.07845091  0.18816695  0.31492239     0.03800
C137        C  0.07373002  0.17078606  0.34178276    -0.12300
C138        C  0.06611412  0.18755824  0.36824307     0.23100
C139        C  0.06340136  0.22183045  0.36796090    -0.12800
C140        C  0.06610609  0.23925812  0.34096865     0.04500
C141        C  0.06455952  0.16948392  0.39692580     0.26900
C142        C  0.03118853  0.16079134  0.40943178    -0.13500
C143        C  0.02983410  0.14437104  0.43696846     0.05000
C144        C  0.06179002  0.13665001  0.45202430    -0.09500
C145        C  0.09519321  0.14482418  0.43934469     0.05800
C146        C  0.09659439  0.16136640  0.41188213    -0.13900
Br147      Br  0.05629893  0.24480799  0.40505579    -0.05900
Br148      Br  0.10573597  0.16596977  0.28456239    -0.00300
Br149      Br  0.48431715  0.13211149  0.45414146     0.00100
Br150      Br  0.14234210  0.17317145  0.39474532    -0.04300
Br151      Br  0.06723419  0.28669834  0.34330971     0.00200
Br152      Br  0.07879455  0.12365567  0.34280986    -0.03600
Br153      Br  0.48746019  0.17144408  0.38874702    -0.04400
Br154      Br  0.13898744  0.13320747  0.45956515    -0.00500
C155        C  0.06451305  0.23002187  0.19856673     0.01000
C156        C  0.09311260  0.20964285  0.18950505     0.03800
C157        C  0.09179742  0.19348984  0.16191540    -0.12300
C158        C  0.06234989  0.19823148  0.14278413     0.23100
C159        C  0.03511647  0.22045124  0.15075843    -0.12800
C160        C  0.03625505  0.23639767  0.17850536     0.04500
C161        C  0.06012184  0.17975052  0.11435652     0.26900
C162        C  0.08082080  0.18953863  0.08969213    -0.13500
C163        C  0.08115428  0.17045312  0.06364816     0.05000
C164        C  0.05853606  0.14263264  0.06119684    -0.09500
C165        C  0.03629482  0.13399822  0.08554670     0.05800
C166        C  0.03809358  0.15179717  0.11230796    -0.13900
Br167      Br  0.99616841  0.22881780  0.12354312    -0.05900
Br168      Br  0.13535586  0.20541178  0.21397441    -0.00300
Br169      Br  0.11498959  0.18158293  0.03263358     0.00100
Br170      Br  0.51083064  0.13759228  0.14655343    -0.04300
Br171      Br  0.99876139  0.26656470  0.18873991     0.00200
Br172      Br  0.13026594  0.16456152  0.15032321    -0.03600
Br173      Br  0.10888523  0.22925072  0.09183432    -0.04400
Br174      Br  0.50153011  0.09918206  0.08218336    -0.00500
C175        C  0.22008326  0.55925739  0.25139020     0.01000
C176        C  0.23825696  0.58547841  0.23707056     0.03800
C177        C  0.27586614  0.58803319  0.23875384    -0.12300
C178        C  0.29586624  0.56381924  0.25356554     0.23100
C179        C  0.27812882  0.53769774  0.26786797    -0.12800
C180        C  0.24039351  0.53567621  0.26731145     0.04500
C181        C  0.33569334  0.56487156  0.25276042     0.26900
C182        C  0.35406933  0.55200333  0.22804138    -0.13500
C183        C  0.39177306  0.55158533  0.22759219     0.05000
C184        C  0.41137881  0.56369401  0.25206356    -0.09500
C185        C  0.39295957  0.57769255  0.27636097     0.05800
C186        C  0.35515926  0.57835028  0.27662577    -0.13900
Br187      Br  0.30592756  0.50439318  0.28789448    -0.05900
Br188      Br  0.21273042  0.61694898  0.21304896    -0.00300
Br189      Br  0.41647172  0.53551875  0.19278439     0.00100
Br190      Br  0.32978480  0.59737339  0.30973952    -0.04300
Br191      Br  0.21714409  0.50119932  0.28972599     0.00200
Br192      Br  0.30048478  0.62451715  0.22035339    -0.03600
Br193      Br  0.32736712  0.53469342  0.19484347    -0.04400
Br194      Br  0.41921766  0.59449920  0.30998980    -0.00500
C195        C  0.41056969  0.33295459  0.26441318     0.01000
C196        C  0.39091248  0.30978134  0.24762489     0.03800
C197        C  0.35312422  0.31027818  0.24777052    -0.12300
C198        C  0.33456001  0.33414506  0.26421606     0.23100
C199        C  0.35384280  0.35659711  0.28172783    -0.12800
C200        C  0.39162739  0.35547622  0.28245848     0.04500
C201        C  0.29477703  0.33606445  0.26225135     0.26900
C202        C  0.27870516  0.35227345  0.23801325    -0.13500
C203        C  0.24114045  0.35249776  0.23498360     0.05000
C204        C  0.21920888  0.33739847  0.25679098    -0.09500
C205        C  0.23539274  0.32189807  0.28149914     0.05800
C206        C  0.27308328  0.32076059  0.28390220    -0.13900
Br207      Br  0.32832584  0.38978832  0.30369693    -0.05900
Br208      Br  0.41483280  0.27833160  0.22276804    -0.00300
Br209      Br  0.22019520  0.37217324  0.19993003     0.00100
Br210      Br  0.29529193  0.29801454  0.31670769    -0.04300
Br211      Br  0.41711168  0.38391941  0.30941752     0.00200
Br212      Br  0.32635614  0.27901309  0.22443365    -0.03600
Br213      Br  0.30844660  0.37407459  0.20883320    -0.04400
Br214      Br  0.20620528  0.30389270  0.31304606    -0.00500
C215        C  0.17957479  0.33893633  0.75396599     0.79800
N216        N  0.16353793  0.36847125  0.74944279    -0.78500
C217        C  0.12769361  0.37017661  0.74494778     0.82300
N218        N  0.10763716  0.34259267  0.74606595    -0.78400
C219        C  0.12286735  0.31314746  0.75157959     0.82400
N220        N  0.15902215  0.31123560  0.75565692    -0.80100
C221        C  0.18026757  0.55633399  0.74938179     0.79800
N222        N  0.16462672  0.52666592  0.74417133    -0.78500
C223        C  0.12840229  0.52423845  0.74196169     0.82300
N224        N  0.10784860  0.55130432  0.74497376    -0.78400
C225        C  0.12284064  0.58076458  0.75055763     0.82400
N226        N  0.15905148  0.58318869  0.75334730    -0.80100
C227        C  0.45085259  0.56001167  0.75262034     0.79800
N228        N  0.46545003  0.52962818  0.74934676    -0.78500
C229        C  0.00154804  0.52599829  0.74875448     0.82300
N230        N  0.02297933  0.55255446  0.75164253    -0.78400
C231        C  0.00891431  0.58280593  0.75531421     0.82400
N232        N  0.47268373  0.58663232  0.75595722    -0.80100
O233        O  0.10079385  0.41427428  0.76938708    -0.74800
O234        O  0.03024334  0.48166827  0.77189802    -0.74800
O235        O  0.02944780  0.41453501  0.77292124    -0.74900
O236        O  0.10151316  0.48092315  0.76803895    -0.74900
O237        O  0.09789276  0.48041682  0.71845802    -0.74900
O238        O  0.02566825  0.41350838  0.72336007    -0.74800
O239        O  0.02632946  0.48118106  0.72233478    -0.74800
O240        O  0.09705545  0.41286604  0.71981765    -0.74900
Ni241      Ni  0.06556219  0.44787407  0.77228037     1.25400
Ni242      Ni  0.06156831  0.44696835  0.71916068     1.25400
C243        C  0.10898009  0.40139687  0.74443983     0.87400
C244        C  0.01860434  0.49389416  0.74756139     0.87300
C245        C  0.01765352  0.40168661  0.74892150     0.87300
C246        C  0.11000464  0.49272799  0.74260215     0.87500
C247        C  0.45022883  0.33613932  0.76084264     0.79800
N248        N  0.46463112  0.36632811  0.75555065    -0.78500
C249        C  0.00036661  0.36967756  0.75086424     0.82300
N250        N  0.02178164  0.34295414  0.75132751    -0.78400
C251        C  0.00817881  0.31285176  0.75690417     0.82400
N252        N  0.47231132  0.30941879  0.76210380    -0.80100
C253        C  0.06782325  0.24179737  0.78383316     0.86100
C254        C  0.10075314  0.26434479  0.77967946    -0.54100
C255        C  0.09889840  0.28464633  0.75566746     0.09000
C256        C  0.06480898  0.28013064  0.73706236     0.20000
C257        C  0.03459683  0.26450485  0.78288466    -0.54800
C258        C  0.03343731  0.28501095  0.75896366     0.09100
C259        C  0.06425011  0.22341903  0.75395342    -0.54400
C260        C  0.06401575  0.24339854  0.72941032     0.09700
H261        H  0.12252439  0.26572574  0.79575173     0.14200
H262        H  0.06381134  0.29656940  0.71734406     0.00000
H263        H  0.01456341  0.26536905  0.80041273     0.14500
H264        H  0.05997416  0.19752545  0.75165232     0.14300
C265        C  0.06993848  0.65022477  0.78679189     0.86100
C266        C  0.03547169  0.62902482  0.78420106    -0.54100
C267        C  0.03383311  0.61054750  0.75903149     0.09000
C268        C  0.06540416  0.61610266  0.73779308     0.20000
C269        C  0.10149810  0.62677016  0.78169305    -0.54800
C270        C  0.09905433  0.60879152  0.75641477     0.09100
C271        C  0.06791277  0.67115765  0.75819776    -0.54400
C272        C  0.06589176  0.65345977  0.73238280     0.09700
H273        H  0.01487854  0.62763933  0.80124026     0.14200
H274        H  0.06326952  0.60117513  0.71726383     0.00000
H275        H  0.12293442  0.62330744  0.79776541     0.14500
H276        H  0.06641171  0.69768765  0.75816263     0.14300
C277        C  0.06025998  0.12001865  0.98104982     0.79800
N278        N  0.06150853  0.08688442  0.98250323    -0.78500
C279        C  0.06086995  0.07147912  0.50926526     0.82300
N280        N  0.05971530  0.08940070  0.53471032    -0.78400
C281        C  0.05841555  0.12273411  0.53344106     0.82400
N282        N  0.05843174  0.13781638  0.50643953    -0.80100
C283        C  0.07038619  0.77305711  0.98287999     0.79800
N284        N  0.06787494  0.75647004  0.50898615    -0.78500
C285        C  0.06587304  0.77312398  0.53500491     0.82300
N286        N  0.06595725  0.80646429  0.53469081    -0.78400
C287        C  0.06901436  0.82352883  0.50874803     0.82400
N288        N  0.07152017  0.80633156  0.98296139    -0.80100
C289        C  0.06943891  0.86053897  0.50849878     0.01000
C290        C  0.08118999  0.87867396  0.53382545     0.03800
C291        C  0.08079053  0.91319203  0.53356767    -0.12300
C292        C  0.06936474  0.93029682  0.50825038     0.23100
C293        C  0.05868899  0.91308133  0.98280916    -0.12800
C294        C  0.05805099  0.87853385  0.98288017     0.04500
C295        C  0.06732855  0.96659204  0.50885022     0.26900
C296        C  0.03463936  0.98202891  0.51595295    -0.13500
C297        C  0.03248119  0.01643837  0.51637986     0.05000
C298        C  0.06323040  0.03546386  0.51039399    -0.09000
C299        C  0.09605527  0.01999102  0.00382973     0.05800
C300        C  0.09806804  0.98560543  0.00287333    -0.13900
Br301      Br  0.04471710  0.93751017  0.94775776    -0.05900
Br302      Br  0.09917432  0.85810086  0.56946710    -0.00300
Br303      Br  0.48708711  0.03740325  0.52386295     0.00100
Br304      Br  0.14285752  0.96440057  0.99345284    -0.04300
Br305      Br  0.03906099  0.85763030  0.94772558     0.00200
Br306      Br  0.09596368  0.93780704  0.56808810    -0.03600
Br307      Br  0.99294106  0.95580400  0.52517232    -0.04400
Br308      Br  0.13840224  0.04601460  0.99660505    -0.00500
C309        C  0.07140413  0.75506082  0.95446199     0.01000
C310        C  0.10222269  0.73719335  0.94644127     0.03800
C311        C  0.10332386  0.72033506  0.91918787    -0.12300
C312        C  0.07371815  0.72153395  0.89973122     0.23100
C313        C  0.04297414  0.73953773  0.90767542    -0.12800
C314        C  0.04154259  0.75574906  0.93524396     0.04500
C315        C  0.07454649  0.70304797  0.87131388     0.26900
C316        C  0.09039277  0.71691486  0.84584818    -0.13500
C317        C  0.09175298  0.69911062  0.81903949     0.05000
C318        C  0.07403822  0.66827018  0.81674630    -0.09500
C319        C  0.06411445  0.65250919  0.84389602     0.05800
C320        C  0.06256963  0.67042886  0.87056892    -0.13900
Br321      Br  0.00301439  0.74206217  0.88056245    -0.05900
Br322      Br  0.14307672  0.73616669  0.97269162    -0.00300
Br323      Br  0.12518879  0.71418643  0.78903698     0.00100
Br324      Br  0.04502027  0.65006052  0.90661347    -0.04300
Br325      Br  0.99783003  0.77705336  0.94750603     0.00200
Br326      Br  0.14542063  0.69566864  0.90827916    -0.03600
Br327      Br  0.11161096  0.76000386  0.84832252    -0.04400
Br328      Br  0.05891950  0.60535507  0.84668529    -0.00500
C329        C  0.06454599  0.75512595  0.56359975     0.01000
C330        C  0.03522163  0.73456512  0.57044671     0.03800
C331        C  0.03393075  0.71789770  0.59793297    -0.12300
C332        C  0.06160978  0.72221000  0.61894172     0.23100
C333        C  0.09086144  0.74283746  0.61206752    -0.12800
C334        C  0.09292028  0.75826350  0.58409963     0.04500
C335        C  0.06120570  0.70356487  0.64746944     0.26900
C336        C  0.03809563  0.71275116  0.67078566    -0.13500
C337        C  0.03747773  0.69457113  0.69747072     0.05000
C338        C  0.06286410  0.66931617  0.70241082    -0.09500
C339        C  0.08618666  0.66037675  0.67892007     0.05800
C340        C  0.08425929  0.67656659  0.65126622    -0.13900
Br341      Br  0.12827226  0.74988453  0.64101400    -0.05900
Br342      Br  0.99686800  0.72905523  0.54212821    -0.00300
Br343      Br  0.99971210  0.70284417  0.72593408     0.00100
Br344      Br  0.11348140  0.66192620  0.61834917    -0.04300
Br345      Br  0.13650316  0.78048903  0.57267857     0.00200
Br346      Br  0.99452067  0.68872047  0.60668635    -0.03600
Br347      Br  0.00808752  0.75097241  0.66647022    -0.04400
Br348      Br  0.12264469  0.62753652  0.68431335    -0.00500
C349        C  0.07040665  0.22229728  0.81339342     0.01000
C350        C  0.07845218  0.18816625  0.81492238     0.03800
C351        C  0.07373168  0.17078539  0.84178283    -0.12300
C352        C  0.06611604  0.18755761  0.86824317     0.23100
C353        C  0.06340332  0.22182981  0.86796098    -0.12800
C354        C  0.06610776  0.23925746  0.84096870     0.04500
C355        C  0.06456165  0.16948335  0.89692594     0.26900
C356        C  0.03119074  0.16079078  0.90943209    -0.13500
C357        C  0.02983648  0.14437075  0.93696890     0.05000
C358        C  0.06179250  0.13664993  0.95202469    -0.09500
C359        C  0.09519560  0.14482412  0.93934495     0.05800
C360        C  0.09659661  0.16136606  0.91188225    -0.13900
Br361      Br  0.05630137  0.24480740  0.90505591    -0.05900
Br362      Br  0.10573674  0.16596900  0.78456210    -0.00300
Br363      Br  0.48431987  0.13211134  0.95414223     0.00100
Br364      Br  0.14234422  0.17317108  0.89474524    -0.04300
Br365      Br  0.06723610  0.28669767  0.84330974     0.00200
Br366      Br  0.07879645  0.12365502  0.84280998    -0.03600
Br367      Br  0.48746248  0.17144302  0.88874735    -0.04400
Br368      Br  0.13898991  0.13320787  0.95956556    -0.00500
C369        C  0.06451237  0.23002092  0.69856680     0.01000
C370        C  0.09311160  0.20964171  0.68950483     0.03800
C371        C  0.09179585  0.19348861  0.66191523    -0.12300
C372        C  0.06234803  0.19823034  0.64278427     0.23100
C373        C  0.03511483  0.22045019  0.65075889    -0.12800
C374        C  0.03625402  0.23639676  0.67850574     0.04500
C375        C  0.06011962  0.17974961  0.61435654     0.26900
C376        C  0.08081819  0.18953802  0.58969201    -0.13500
C377        C  0.08115131  0.17045282  0.56364784     0.05000
C378        C  0.05853324  0.14263222  0.56119653    -0.09500
C379        C  0.03629236  0.13399753  0.58554656     0.05800
C380        C  0.03809137  0.15179627  0.61230793    -0.13900
Br381      Br  0.99616616  0.22881668  0.62354414    -0.05900
Br382      Br  0.13535531  0.20541051  0.71397366    -0.00300
Br383      Br  0.11498589  0.18158333  0.53263290     0.00100
Br384      Br  0.51082851  0.13759115  0.64655344    -0.04300
Br385      Br  0.99876086  0.26656417  0.68874054     0.00200
Br386      Br  0.13026398  0.16456000  0.65032275    -0.03600
Br387      Br  0.10888261  0.22925011  0.59183436    -0.04400
Br388      Br  0.50152771  0.09918119  0.58218343    -0.00500
C389        C  0.22008440  0.55925645  0.75138842     0.01000
C390        C  0.23825795  0.58547762  0.73706885     0.03800
C391        C  0.27586712  0.58803254  0.73875206    -0.12300
C392        C  0.29586739  0.56381860  0.75356362     0.23100
C393        C  0.27813014  0.53769686  0.76786585    -0.12800
C394        C  0.24039484  0.53567517  0.76730940     0.04500
C395        C  0.33569448  0.56487130  0.75275880     0.26900
C396        C  0.35407093  0.55200331  0.72803989    -0.13500
C397        C  0.39177467  0.55158537  0.72759114     0.05000
C398        C  0.41137998  0.56369395  0.75206282    -0.09500
C399        C  0.39296028  0.57769238  0.77636004     0.05800
C400        C  0.35515995  0.57834998  0.77662441    -0.13900
Br401      Br  0.30592914  0.50439223  0.78789206    -0.05900
Br402      Br  0.21273119  0.61694831  0.71304755    -0.00300
Br403      Br  0.41647396  0.53551891  0.69278362     0.00100
Br404      Br  0.32978488  0.59737276  0.80973800    -0.04300
Br405      Br  0.21714572  0.50119802  0.78972382     0.00200
Br406      Br  0.30048548  0.62451674  0.72035176    -0.03600
Br407      Br  0.32736932  0.53469356  0.69484158    -0.04400
Br408      Br  0.41921773  0.59449906  0.80998921    -0.00500
C409        C  0.41057011  0.33295402  0.76441363     0.01000
C410        C  0.39091290  0.30978055  0.74762556     0.03800
C411        C  0.35312465  0.31027751  0.74777099    -0.12300
C412        C  0.33456040  0.33414462  0.76421620     0.23100
C413        C  0.35384314  0.35659686  0.78172780    -0.12800
C414        C  0.39162773  0.35547592  0.78245861     0.04500
C415        C  0.29477744  0.33606398  0.76225136     0.26900
C416        C  0.27870569  0.35227299  0.73801321    -0.13500
C417        C  0.24114099  0.35249719  0.73498339     0.05000
C418        C  0.21920933  0.33739776  0.75679062    -0.09500
C419        C  0.23539308  0.32189731  0.78149880     0.05800
C420        C  0.27308360  0.32075995  0.78390205    -0.13900
Br421      Br  0.32832611  0.38978844  0.80369639    -0.05900
Br422      Br  0.41483319  0.27833017  0.72276940    -0.00300
Br423      Br  0.22019589  0.37217270  0.69992978     0.00100
Br424      Br  0.29529215  0.29801377  0.81670751    -0.04300
Br425      Br  0.41711185  0.38391940  0.80941749     0.00200
Br426      Br  0.32635655  0.27901229  0.72443423    -0.03600
Br427      Br  0.30844731  0.37407421  0.70883332    -0.04400
Br428      Br  0.20620545  0.30389164  0.81304548    -0.00500
C429        C  0.67957435  0.33893707  0.25396651     0.79800
N430        N  0.66353753  0.36847202  0.24944335    -0.78500
C431        C  0.62769319  0.37017742  0.24494846     0.82300
N432        N  0.60763672  0.34259351  0.24606664    -0.78400
C433        C  0.62286688  0.31314828  0.25158020     0.82400
N434        N  0.65902169  0.31123636  0.25565745    -0.80100
C435        C  0.68026649  0.55633494  0.24938313     0.79800
N436        N  0.66462586  0.52666682  0.24417256    -0.78500
C437        C  0.62840149  0.52423923  0.24196242     0.82300
N438        N  0.60784765  0.55130505  0.24497413    -0.78400
C439        C  0.62283946  0.58076535  0.25055812     0.82400
N440        N  0.65905024  0.58318959  0.25334829    -0.80100
C441        C  0.95085142  0.56001197  0.25262040     0.79800
N442        N  0.96544894  0.52962854  0.24934667    -0.78500
C443        C  0.50154707  0.52599876  0.24875394     0.82300
N444        N  0.52297825  0.55255505  0.25164168    -0.78400
C445        C  0.50891309  0.58280642  0.25531364     0.82400
N446        N  0.97268250  0.58663271  0.25595702    -0.80100
O447        O  0.60079301  0.41427505  0.26938752    -0.74800
O448        O  0.53024220  0.48166883  0.27189774    -0.74800
O449        O  0.52944688  0.41453561  0.27292094    -0.74900
O450        O  0.60151211  0.48092390  0.26803943    -0.74900
O451        O  0.59789251  0.48041757  0.21845845    -0.74900
O452        O  0.52566812  0.41350902  0.22335971    -0.74800
O453        O  0.52632916  0.48118169  0.22233445    -0.74800
O454        O  0.59705537  0.41286684  0.21981805    -0.74900
Ni455      Ni  0.56556118  0.44787475  0.27228045     1.25400
Ni456      Ni  0.56156815  0.44696906  0.21916070     1.25400
C457        C  0.60897967  0.40139768  0.24444035     0.87400
C458        C  0.51860356  0.49389470  0.24756099     0.87300
C459        C  0.51765300  0.40168724  0.24892106     0.87300
C460        C  0.61000395  0.49272875  0.24260271     0.87500
C461        C  0.95022831  0.33613986  0.26084215     0.79800
N462        N  0.96463054  0.36632866  0.25555011    -0.78500
C463        C  0.50036610  0.36967821  0.25086362     0.82300
N464        N  0.52178113  0.34295479  0.25132687    -0.78400
C465        C  0.50817830  0.31285242  0.25690350     0.82400
N466        N  0.97231084  0.30941936  0.26210341    -0.80100
C467        C  0.56782231  0.24179810  0.28383309     0.86100
C468        C  0.60075225  0.26434556  0.27967978    -0.54100
C469        C  0.59889792  0.28464712  0.25566781     0.09000
C470        C  0.56480883  0.28013151  0.23706222     0.20000
C471        C  0.53459605  0.26450553  0.28288408    -0.54800
C472        C  0.53343679  0.28501166  0.25896326     0.09100
C473        C  0.56424971  0.22341988  0.25395327    -0.54400
C474        C  0.56401578  0.24339936  0.22941021     0.09700
H475        H  0.62252334  0.26572651  0.29575241     0.14200
H476        H  0.56381153  0.29656996  0.21734433     0.00000
H477        H  0.51456143  0.26536971  0.30041271     0.14500
H478        H  0.55997368  0.19752589  0.25165203     0.14300
C479        C  0.56993663  0.65022541  0.28679183     0.86100
C480        C  0.53546991  0.62902540  0.28420060    -0.54100
C481        C  0.53383173  0.61054809  0.25903107     0.09000
C482        C  0.56540305  0.61610317  0.23779281     0.20000
C483        C  0.60149619  0.62677084  0.28169315    -0.54800
C484        C  0.59905300  0.60879223  0.25641500     0.09100
C485        C  0.56791129  0.67115793  0.25819765    -0.54400
C486        C  0.56589064  0.65346045  0.23238270     0.09700
H487        H  0.51487639  0.62763990  0.30123969     0.14200
H488        H  0.56326881  0.60117620  0.21726433     0.00000
H489        H  0.62293326  0.62330797  0.29776646     0.14500
H490        H  0.56641012  0.69769022  0.25816254     0.14300
C491        C  0.56025652  0.12001857  0.48104929     0.79800
N492        N  0.56150497  0.08688433  0.48250256    -0.78500
C493        C  0.56087236  0.07147936  0.00926581     0.82300
N494        N  0.55971779  0.08940104  0.03471081    -0.78400
C495        C  0.55841801  0.12273443  0.03344142     0.82400
N496        N  0.55843407  0.13781661  0.00643985    -0.80100
C497        C  0.57038659  0.77305668  0.48288055     0.79800
N498        N  0.56787462  0.75647022  0.00898559    -0.78500
C499        C  0.56587270  0.77312400  0.03500444     0.82300
N500        N  0.56595744  0.80646431  0.03469054    -0.78400
C501        C  0.56901503  0.82352902  0.00874789     0.82400
N502        N  0.57151990  0.80633115  0.48296160    -0.80100
C503        C  0.56944003  0.86053918  0.00849889     0.01000
C504        C  0.58119070  0.87867390  0.03382588     0.03800
C505        C  0.58079144  0.91319198  0.03356834    -0.12300
C506        C  0.56936655  0.93029706  0.00825094     0.23100
C507        C  0.55868542  0.91308071  0.48280889    -0.12800
C508        C  0.55804814  0.87853322  0.48288016     0.04500
C509        C  0.56733058  0.96659230  0.00885096     0.26900
C510        C  0.53464117  0.98202930  0.01595279    -0.13500
C511        C  0.53248312  0.01643876  0.01637961     0.05000
C512        C  0.56323267  0.03546412  0.01039469    -0.09000
C513        C  0.59605159  0.01999102  0.50382718     0.05800
C514        C  0.59806467  0.98560545  0.50287066    -0.13900
Br515      Br  0.54471097  0.93750903  0.44775790    -0.05900
Br516      Br  0.59917411  0.85810041  0.06946767    -0.00300
Br517      Br  0.98708960  0.03740437  0.02386024     0.00100
Br518      Br  0.64285361  0.96440097  0.49344766    -0.04300
Br519      Br  0.53905681  0.85762894  0.44772646     0.00200
Br520      Br  0.59596349  0.93780662  0.06808932    -0.03600
Br521      Br  0.49294242  0.95580457  0.02517111    -0.04400
Br522      Br  0.63839785  0.04601490  0.49660051    -0.00500
C523        C  0.57140389  0.75506007  0.45446270     0.01000
C524        C  0.60222217  0.73719239  0.44644165     0.03800
C525        C  0.60332273  0.72033405  0.41918826    -0.12300
C526        C  0.57371679  0.72153336  0.39973184     0.23100
C527        C  0.54297300  0.73953725  0.40767646    -0.12800
C528        C  0.54154195  0.75574831  0.43524513     0.04500
C529        C  0.57454467  0.70304778  0.37131428     0.26900
C530        C  0.59039121  0.71691476  0.34584874    -0.13500
C531        C  0.59175116  0.69911085  0.31903986     0.05000
C532        C  0.57403598  0.66827062  0.31674633    -0.09500
C533        C  0.56411186  0.65250949  0.34389592     0.05800
C534        C  0.56256712  0.67042891  0.37056895    -0.13900
Br535      Br  0.50301290  0.74206224  0.38056391    -0.05900
Br536      Br  0.64307670  0.73616556  0.47269149    -0.00300
Br537      Br  0.62518704  0.71418678  0.28903747     0.00100
Br538      Br  0.54501707  0.65006050  0.40661324    -0.04300
Br539      Br  0.49782938  0.77705196  0.44750812     0.00200
Br540      Br  0.64541898  0.69566706  0.40827923    -0.03600
Br541      Br  0.61161017  0.76000341  0.34832356    -0.04400
Br542      Br  0.55891660  0.60535534  0.34668493    -0.00500
C543        C  0.56454560  0.75512583  0.06359920     0.01000
C544        C  0.53522110  0.73456520  0.07044620     0.03800
C545        C  0.53393014  0.71789781  0.09793248    -0.12300
C546        C  0.56160922  0.72221002  0.11894122     0.23100
C547        C  0.59086102  0.74283728  0.11206695    -0.12800
C548        C  0.59291996  0.75826321  0.08409903     0.04500
C549        C  0.56120501  0.70356503  0.14746904     0.26900
C550        C  0.53809492  0.71275150  0.17078517    -0.13500
C551        C  0.53747682  0.69457156  0.19747029     0.05000
C552        C  0.56286325  0.66931671  0.20241063    -0.09500
C553        C  0.58618600  0.66037724  0.17892004     0.05800
C554        C  0.58425868  0.67656684  0.15126607    -0.13900
Br555      Br  0.62827181  0.74988440  0.14101344    -0.05900
Br556      Br  0.49686731  0.72905561  0.04212780    -0.00300
Br557      Br  0.49971086  0.70284455  0.22593335     0.00100
Br558      Br  0.61348098  0.66192627  0.11834922    -0.04300
Br559      Br  0.63650300  0.78048841  0.07267784     0.00200
Br560      Br  0.49451983  0.68872084  0.10668589    -0.03600
Br561      Br  0.50808722  0.75097301  0.16646966    -0.04400
Br562      Br  0.62264427  0.62753731  0.18431371    -0.00500
C563        C  0.57040516  0.22229801  0.31339334     0.01000
C564        C  0.57845039  0.18816693  0.31492235     0.03800
C565        C  0.57372934  0.17078608  0.34178272    -0.12300
C566        C  0.56611357  0.18755833  0.36824302     0.23100
C567        C  0.56340104  0.22183056  0.36796082    -0.12800
C568        C  0.56610589  0.23925820  0.34096858     0.04500
C569        C  0.56455890  0.16948403  0.39692575     0.26900
C570        C  0.53118788  0.16079165  0.40943178    -0.13500
C571        C  0.52983340  0.14437130  0.43696845     0.05000
C572        C  0.56178931  0.13665005  0.45202422    -0.09500
C573        C  0.59519252  0.14482401  0.43934454     0.05800
C574        C  0.59659374  0.16136629  0.41188200    -0.13900
Br575      Br  0.55629876  0.24480818  0.40505569    -0.05900
Br576      Br  0.60573530  0.16596952  0.28456239    -0.00300
Br577      Br  0.98431788  0.13211100  0.45414144     0.00100
Br578      Br  0.64234147  0.17317117  0.39474514    -0.04300
Br579      Br  0.56723407  0.28669844  0.34330963     0.00200
Br580      Br  0.57879358  0.12365565  0.34280986    -0.03600
Br581      Br  0.98746080  0.17144341  0.38874694    -0.04400
Br582      Br  0.63898674  0.13320702  0.45956491    -0.00500
C583        C  0.56451298  0.23002185  0.19856668     0.01000
C584        C  0.59311248  0.20964279  0.18950498     0.03800
C585        C  0.59179727  0.19348983  0.16191530    -0.12300
C586        C  0.56234972  0.19823149  0.14278406     0.23100
C587        C  0.53511633  0.22045126  0.15075840    -0.12800
C588        C  0.53625495  0.23639768  0.17850534     0.04500
C589        C  0.56012159  0.17975053  0.11435646     0.26900
C590        C  0.58082050  0.18953862  0.08969203    -0.13500
C591        C  0.58115388  0.17045311  0.06364806     0.05000
C592        C  0.55853564  0.14263265  0.06119678    -0.09500
C593        C  0.53629444  0.13399825  0.08554668     0.05800
C594        C  0.53809330  0.15179719  0.11230795    -0.13900
Br595      Br  0.49616824  0.22881783  0.12354312    -0.05900
Br596      Br  0.63535569  0.20541153  0.21397438    -0.00300
Br597      Br  0.61498912  0.18158291  0.03263341     0.00100
Br598      Br  0.01083076  0.13759228  0.14655335    -0.04300
Br599      Br  0.49876130  0.26656470  0.18873992     0.00200
Br600      Br  0.63026578  0.16456154  0.15032301    -0.03600
Br601      Br  0.60888501  0.22925066  0.09183415    -0.04400
Br602      Br  0.00153051  0.09918202  0.08218333    -0.00500
C603        C  0.72008326  0.55925754  0.25139011     0.01000
C604        C  0.73825691  0.58547859  0.23707046     0.03800
C605        C  0.77586609  0.58803338  0.23875368    -0.12300
C606        C  0.79586623  0.56381943  0.25356535     0.23100
C607        C  0.77812884  0.53769794  0.26786783    -0.12800
C608        C  0.74039354  0.53567638  0.26731135     0.04500
C609        C  0.83569331  0.56487174  0.25276021     0.26900
C610        C  0.85406930  0.55200345  0.22804120    -0.13500
C611        C  0.89177304  0.55158543  0.22759202     0.05000
C612        C  0.91137879  0.56369414  0.25206340    -0.09500
C613        C  0.89295953  0.57769271  0.27636080     0.05800
C614        C  0.85515923  0.57835047  0.27662555    -0.13900
Br615      Br  0.80592763  0.50439346  0.28789443    -0.05900
Br616      Br  0.71273028  0.61694920  0.21304898    -0.00300
Br617      Br  0.91647165  0.53551878  0.19278423     0.00100
Br618      Br  0.82978480  0.59737363  0.30973929    -0.04300
Br619      Br  0.71714418  0.50119954  0.28972598     0.00200
Br620      Br  0.80048466  0.62451735  0.22035319    -0.03600
Br621      Br  0.82736705  0.53469346  0.19484333    -0.04400
Br622      Br  0.91921756  0.59449937  0.30998967    -0.00500
C623        C  0.91056966  0.33295450  0.26441319     0.01000
C624        C  0.89091247  0.30978126  0.24762488     0.03800
C625        C  0.85312421  0.31027804  0.24777054    -0.12300
C626        C  0.83456000  0.33414490  0.26421609     0.23100
C627        C  0.85384277  0.35659698  0.28172785    -0.12800
C628        C  0.89162735  0.35547610  0.28245850     0.04500
C629        C  0.79477704  0.33606430  0.26225138     0.26900
C630        C  0.77870520  0.35227326  0.23801325    -0.13500
C631        C  0.74114049  0.35249761  0.23498359     0.05000
C632        C  0.71920890  0.33739840  0.25679100    -0.09500
C633        C  0.73539273  0.32189804  0.28149919     0.05800
C634        C  0.77308327  0.32076054  0.28390227    -0.13900
Br635      Br  0.82832577  0.38978823  0.30369689    -0.05900
Br636      Br  0.91483286  0.27833157  0.22276801    -0.00300
Br637      Br  0.72019529  0.37217302  0.19992999     0.00100
Br638      Br  0.79529192  0.29801459  0.31670783    -0.04300
Br639      Br  0.91711160  0.38391924  0.30941759     0.00200
Br640      Br  0.82635612  0.27901291  0.22443370    -0.03600
Br641      Br  0.80844669  0.37407434  0.20883318    -0.04400
Br642      Br  0.70620522  0.30389270  0.31304608    -0.00500
C643        C  0.67957476  0.33893628  0.75396589     0.79800
N644        N  0.66353791  0.36847121  0.74944270    -0.78500
C645        C  0.62769359  0.37017659  0.74494770     0.82300
N646        N  0.60763713  0.34259265  0.74606588    -0.78400
C647        C  0.62286731  0.31314743  0.75157951     0.82400
N648        N  0.65902211  0.31123557  0.75565684    -0.80100
C649        C  0.68026758  0.55633415  0.74938170     0.79800
N650        N  0.66462675  0.52666606  0.74417126    -0.78500
C651        C  0.62840232  0.52423854  0.74196170     0.82300
N652        N  0.60784861  0.55130438  0.74497385    -0.78400
C653        C  0.62284063  0.58076466  0.75055768     0.82400
N654        N  0.65905147  0.58318882  0.75334726    -0.80100
C655        C  0.95085257  0.56001173  0.75262015     0.79800
N656        N  0.96544999  0.52962822  0.74934660    -0.78500
C657        C  0.50154809  0.52599829  0.74875455     0.82300
N658        N  0.52297936  0.55255447  0.75164260    -0.78400
C659        C  0.50891432  0.58280592  0.75531430     0.82400
N660        N  0.97268373  0.58663237  0.75595706    -0.80100
O661        O  0.60079395  0.41427429  0.76938703    -0.74800
O662        O  0.53024340  0.48166825  0.77189804    -0.74800
O663        O  0.52944792  0.41453499  0.77292124    -0.74900
O664        O  0.60151322  0.48092319  0.76803894    -0.74900
O665        O  0.59789286  0.48041687  0.71845801    -0.74900
O666        O  0.52566829  0.41350845  0.72336007    -0.74800
O667        O  0.52632956  0.48118113  0.72233479    -0.74800
O668        O  0.59705547  0.41286607  0.71981761    -0.74900
Ni669      Ni  0.56556228  0.44787408  0.77228036     1.25400
Ni670      Ni  0.56156838  0.44696841  0.71916067     1.25400
C671        C  0.60898012  0.40139687  0.74443977     0.87400
C672        C  0.51860441  0.49389417  0.74756142     0.87300
C673        C  0.51765358  0.40168664  0.74892150     0.87300
C674        C  0.61000470  0.49272805  0.74260215     0.87500
C675        C  0.95022882  0.33613930  0.76084277     0.79800
N676        N  0.96463109  0.36632808  0.75555070    -0.78500
C677        C  0.50036665  0.36967759  0.75086423     0.82300
N678        N  0.52178166  0.34295416  0.75132746    -0.78400
C679        C  0.50817880  0.31285177  0.75690404     0.82400
N680        N  0.97231134  0.30941877  0.76210398    -0.80100
C681        C  0.56782313  0.24179737  0.78383310     0.86100
C682        C  0.60075306  0.26434476  0.77967937    -0.54100
C683        C  0.59889835  0.28464630  0.75566738     0.09000
C684        C  0.56480895  0.28013059  0.73706228     0.20000
C685        C  0.53459694  0.26450487  0.78288441    -0.54800
C686        C  0.53343726  0.28501096  0.75896357     0.09100
C687        C  0.56424999  0.22341902  0.75395336    -0.54400
C688        C  0.56401567  0.24339850  0.72941024     0.09700
H689        H  0.62252437  0.26572570  0.79575171     0.14200
H690        H  0.56381135  0.29656942  0.71734387     0.00000
H691        H  0.51456240  0.26536916  0.80041348     0.14500
H692        H  0.55997396  0.19752538  0.75165227     0.14300
C693        C  0.56993842  0.65022483  0.78679192     0.86100
C694        C  0.53547164  0.62902485  0.78420110    -0.54100
C695        C  0.53383307  0.61054752  0.75903156     0.09000
C696        C  0.56540410  0.61610263  0.73779307     0.20000
C697        C  0.60149809  0.62677022  0.78169311    -0.54800
C698        C  0.59905428  0.60879158  0.75641482     0.09100
C699        C  0.56791268  0.67115768  0.75819778    -0.54400
C700        C  0.56589167  0.65345980  0.73238284     0.09700
H701        H  0.51487846  0.62763935  0.80124036     0.14200
H702        H  0.56326951  0.60117535  0.71726420     0.00000
H703        H  0.62293413  0.62330756  0.79776524     0.14500
H704        H  0.56641160  0.69768774  0.75816262     0.14300
C705        C  0.56025944  0.12001867  0.98104976     0.79800
N706        N  0.56150794  0.08688444  0.98250316    -0.78500
C707        C  0.56086922  0.07147910  0.50926516     0.82300
N708        N  0.55971460  0.08940068  0.53471022    -0.78400
C709        C  0.55841487  0.12273408  0.53344098     0.82400
N710        N  0.55843103  0.13781638  0.50643945    -0.80100
C711        C  0.57038645  0.77305709  0.98288006     0.79800
N712        N  0.56787528  0.75647004  0.50898623    -0.78500
C713        C  0.56587328  0.77312403  0.53500496     0.82300
N714        N  0.56595738  0.80646434  0.53469080    -0.78400
C715        C  0.56901450  0.82352882  0.50874798     0.82400
N716        N  0.57152037  0.80633154  0.98296139    -0.80100
C717        C  0.56943890  0.86053895  0.50849866     0.01000
C718        C  0.58119051  0.87867399  0.53382512     0.03800
C719        C  0.58079091  0.91319205  0.53356732    -0.12300
C720        C  0.56936444  0.93029679  0.50825022     0.23100
C721        C  0.55868853  0.91308132  0.98280914    -0.12800
C722        C  0.55805061  0.87853383  0.98288019     0.04500
C723        C  0.56732812  0.96659201  0.50885006     0.26900
C724        C  0.53463900  0.98202880  0.51595316    -0.13500
C725        C  0.53248073  0.01643826  0.51638008     0.05000
C726        C  0.56322978  0.03546384  0.51039389    -0.09000
C727        C  0.59605477  0.01999113  0.00382936     0.05800
C728        C  0.59806766  0.98560555  0.00287291    -0.13900
Br729      Br  0.54471615  0.93751009  0.94775783    -0.05900
Br730      Br  0.59917579  0.85810091  0.56946643    -0.00300
Br731      Br  0.98708753  0.03740349  0.52386228     0.00100
Br732      Br  0.64285708  0.96440082  0.99345195    -0.04300
Br733      Br  0.53906007  0.85763015  0.94772586     0.00200
Br734      Br  0.59596487  0.93780710  0.56808747    -0.03600
Br735      Br  0.49294093  0.95580377  0.52517299    -0.04400
Br736      Br  0.63840159  0.04601483  0.99660437    -0.00500
C737        C  0.57140434  0.75506072  0.95446208     0.01000
C738        C  0.60222289  0.73719325  0.94644134     0.03800
C739        C  0.60332402  0.72033496  0.91918794    -0.12300
C740        C  0.57371829  0.72153388  0.89973130     0.23100
C741        C  0.54297429  0.73953766  0.90767554    -0.12800
C742        C  0.54154277  0.75574894  0.93524410     0.04500
C743        C  0.57454661  0.70304794  0.87131394     0.26900
C744        C  0.59039289  0.71691485  0.84584825    -0.13500
C745        C  0.59175299  0.69911066  0.81903953     0.05000
C746        C  0.57403819  0.66827024  0.81674632    -0.09500
C747        C  0.56411449  0.65250922  0.84389604     0.05800
C748        C  0.56256971  0.67042885  0.87056896    -0.13900
Br749      Br  0.50301450  0.74206215  0.88056262    -0.05900
Br750      Br  0.64307702  0.73616668  0.97269160    -0.00300
Br751      Br  0.62518863  0.71418660  0.78903693     0.00100
Br752      Br  0.54502036  0.65006048  0.90661350    -0.04300
Br753      Br  0.49783018  0.77705312  0.94750626     0.00200
Br754      Br  0.64542079  0.69566858  0.90827916    -0.03600
Br755      Br  0.61161125  0.76000378  0.84832262    -0.04400
Br756      Br  0.55891959  0.60535507  0.84668528    -0.00500
C757        C  0.56454616  0.75512603  0.56359982     0.01000
C758        C  0.53522182  0.73456516  0.57044671     0.03800
C759        C  0.53393089  0.71789770  0.59793295    -0.12300
C760        C  0.56160983  0.72221006  0.61894177     0.23100
C761        C  0.59086148  0.74283757  0.61206764    -0.12800
C762        C  0.59292041  0.75826358  0.58409973     0.04500
C763        C  0.56120568  0.70356490  0.64746948     0.26900
C764        C  0.53809553  0.71275112  0.67078566    -0.13500
C765        C  0.53747761  0.69457109  0.69747072     0.05000
C766        C  0.56286401  0.66931616  0.70241084    -0.09500
C767        C  0.58618660  0.66037675  0.67892010     0.05800
C768        C  0.58425931  0.67656665  0.65126628    -0.13900
Br769      Br  0.62827214  0.74988477  0.64101422    -0.05900
Br770      Br  0.49686830  0.72905521  0.54212813    -0.00300
Br771      Br  0.49971199  0.70284415  0.72593409     0.00100
Br772      Br  0.61348159  0.66192639  0.61834930    -0.04300
Br773      Br  0.63650341  0.78048893  0.57267865     0.00200
Br774      Br  0.49452091  0.68872029  0.60668615    -0.03600
Br775      Br  0.50808730  0.75097228  0.66647018    -0.04400
Br776      Br  0.62264458  0.62753648  0.68431337    -0.00500
C777        C  0.57040649  0.22229730  0.81339336     0.01000
C778        C  0.57845183  0.18816624  0.81492234     0.03800
C779        C  0.57373125  0.17078542  0.84178280    -0.12300
C780        C  0.56611571  0.18755769  0.86824314     0.23100
C781        C  0.56340313  0.22182991  0.86796091    -0.12800
C782        C  0.56610765  0.23925752  0.84096862     0.04500
C783        C  0.56456126  0.16948345  0.89692592     0.26900
C784        C  0.53119033  0.16079104  0.90943209    -0.13500
C785        C  0.52983602  0.14437098  0.93696889     0.05000
C786        C  0.56179202  0.13664997  0.95202463    -0.09500
C787        C  0.59519515  0.14482399  0.93934486     0.05800
C788        C  0.59659620  0.16136598  0.91188218    -0.13900
Br789      Br  0.55630122  0.24480760  0.90505579    -0.05900
Br790      Br  0.60573637  0.16596891  0.78456210    -0.00300
Br791      Br  0.98432037  0.13211088  0.95414219     0.00100
Br792      Br  0.64234385  0.17317085  0.89474518    -0.04300
Br793      Br  0.56723621  0.28669773  0.84330959     0.00200
Br794      Br  0.57879577  0.12365502  0.84280997    -0.03600
Br795      Br  0.98746286  0.17144255  0.88874731    -0.04400
Br796      Br  0.63898945  0.13320759  0.95956540    -0.00500
C797        C  0.56451223  0.23002084  0.69856673     0.01000
C798        C  0.59311142  0.20964157  0.68950474     0.03800
C799        C  0.59179559  0.19348845  0.66191515    -0.12300
C800        C  0.56234777  0.19823024  0.64278422     0.23100
C801        C  0.53511461  0.22045010  0.65075885    -0.12800
C802        C  0.53625386  0.23639669  0.67850570     0.04500
C803        C  0.56011928  0.17974953  0.61435649     0.26900
C804        C  0.58081775  0.18953797  0.58969191    -0.13500
C805        C  0.58115075  0.17045280  0.56364772     0.05000
C806        C  0.55853268  0.14263219  0.56119646    -0.09500
C807        C  0.53629190  0.13399748  0.58554656     0.05800
C808        C  0.53809100  0.15179621  0.61230793    -0.13900
Br809      Br  0.49616591  0.22881653  0.62354413    -0.05900
Br810      Br  0.63535520  0.20541045  0.71397347    -0.00300
Br811      Br  0.61498519  0.18158334  0.53263268     0.00100
Br812      Br  0.01082890  0.13759114  0.64655343    -0.04300
Br813      Br  0.49876077  0.26656415  0.68874050     0.00200
Br814      Br  0.63026362  0.16455977  0.65032259    -0.03600
Br815      Br  0.60888215  0.22925007  0.59183418    -0.04400
Br816      Br  0.00152816  0.09918126  0.58218329    -0.00500
C817        C  0.72008441  0.55925664  0.75138826     0.01000
C818        C  0.73825792  0.58547780  0.73706864     0.03800
C819        C  0.77586710  0.58803274  0.73875183    -0.12300
C820        C  0.79586739  0.56381882  0.75356338     0.23100
C821        C  0.77813017  0.53769708  0.76786563    -0.12800
C822        C  0.74039488  0.53567538  0.76730923     0.04500
C823        C  0.83569447  0.56487150  0.75275853     0.26900
C824        C  0.85407091  0.55200339  0.72803967    -0.13500
C825        C  0.89177466  0.55158542  0.72759094     0.05000
C826        C  0.91137997  0.56369404  0.75206260    -0.09500
C827        C  0.89296026  0.57769252  0.77635980     0.05800
C828        C  0.85515995  0.57835018  0.77662414    -0.13900
Br829      Br  0.80592922  0.50439247  0.78789184    -0.05900
Br830      Br  0.71273109  0.61694838  0.71304729    -0.00300
Br831      Br  0.91647397  0.53551891  0.69278343     0.00100
Br832      Br  0.82978492  0.59737301  0.80973774    -0.04300
Br833      Br  0.71714582  0.50119821  0.78972365     0.00200
Br834      Br  0.80048546  0.62451696  0.72035153    -0.03600
Br835      Br  0.82736926  0.53469358  0.69484140    -0.04400
Br836      Br  0.91921768  0.59449909  0.80998901    -0.00500
C837        C  0.91057011  0.33295399  0.76441378     0.01000
C838        C  0.89091291  0.30978053  0.74762571     0.03800
C839        C  0.85312466  0.31027751  0.74777109    -0.12300
C840        C  0.83456038  0.33414463  0.76421627     0.23100
C841        C  0.85384312  0.35659684  0.78172792    -0.12800
C842        C  0.89162772  0.35547590  0.78245875     0.04500
C843        C  0.79477741  0.33606401  0.76225139     0.26900
C844        C  0.77870568  0.35227298  0.73801321    -0.13500
C845        C  0.74114098  0.35249715  0.73498333     0.05000
C846        C  0.71920930  0.33739773  0.75679055    -0.09500
C847        C  0.73539301  0.32189735  0.78149879     0.05800
C848        C  0.77308353  0.32076001  0.78390207    -0.13900
Br849      Br  0.82832606  0.38978838  0.80369656    -0.05900
Br850      Br  0.91483327  0.27833014  0.72276959    -0.00300
Br851      Br  0.72019594  0.37217264  0.69992968     0.00100
Br852      Br  0.79529202  0.29801393  0.81670761    -0.04300
Br853      Br  0.91711187  0.38391935  0.80941765     0.00200
Br854      Br  0.82635663  0.27901231  0.72443426    -0.03600
Br855      Br  0.80844728  0.37407421  0.70883333    -0.04400
Br856      Br  0.70620532  0.30389185  0.81304550    -0.00500
loop_ 
_geom_bond_atom_site_label_1 
_geom_bond_atom_site_label_2 
_geom_bond_distance 
_geom_bond_site_symmetry_2 
_ccdc_geom_bond_type 
C1            N2   1.361       .  A
C1            N6   1.367       .  A
C1          C204   1.485       .  S
N2            C3   1.354       .  A
C3            N4   1.352       .  A
C3           C29   1.454       .  S
N4            C5   1.352       .  A
C5            N6   1.363       .  A
C5           C41   1.477       .  S
C7            N8   1.365       .  A
C7           N12   1.364       .  A
C7          C175   1.492       .  S
N8            C9   1.358       .  A
C9           N10   1.352       .  A
C9           C32   1.457       .  S
N10          C11   1.350       .  A
C11          N12   1.360       .  A
C11          C56   1.472       .  S
C13          N14   1.363       .  A
C13          N18   1.366       .  A
C13         C184   1.480       .  S
N14         C443   1.354       .  A
C15          N16   1.353       .  A
C15         N442   1.354   1_455  A
C15          C30   1.458       .  S
N16          C17   1.353       .  A
C17         N446   1.360   1_455  A
C17          C53   1.474       .  S
N18         C445   1.360       .  A
O19         Ni27   1.905       .  S
O19          C29   1.277       .  A
O20         Ni27   1.908       .  S
O20          C30   1.278       .  A
O21         Ni27   1.914       .  S
O21          C31   1.280       .  A
O22         Ni27   1.910       .  S
O22          C32   1.279       .  A
O23         Ni28   1.922       .  S
O23          C32   1.280       .  A
O24         Ni28   1.920       .  S
O24          C31   1.280       .  A
O25         Ni28   1.924       .  S
O25          C30   1.282       .  A
O26         Ni28   1.922       .  S
O26          C29   1.281       .  A
Ni27        Ni28   2.394       .  S
C31          C35   1.459       .  S
C33          N34   1.364       .  A
C33          N38   1.368       .  A
C33         C195   1.493       .  S
N34         C463   1.355       .  A
C35          N36   1.353       .  A
C35         N462   1.355   1_455  A
N36          C37   1.351       .  A
C37         N466   1.364   1_455  A
C37          C44   1.479       .  S
N38         C465   1.364       .  A
C39          C40   1.545       .  S
C39          C45   1.547       .  S
C39          C43   1.549       .  S
C39         C135   1.550       .  S
C40          H47   1.089       .  S
C40          C41   1.361       .  D
C41          C42   1.534       .  S
C42          C46   1.540       .  S
C42          C44   1.542       .  S
C42          H48   1.111       .  S
C43          H49   1.086       .  S
C43          C44   1.362       .  D
C45          H50   1.074       .  S
C45          C46   1.370       .  D
C46         C155   1.492       .  S
C51          C52   1.553       .  S
C51          C57   1.544       .  S
C51          C55   1.535       .  S
C51         C104   1.545       .  S
C52          H59   1.085       .  S
C52          C53   1.364       .  D
C53          C54   1.531       .  S
C54          C58   1.544       .  S
C54          C56   1.538       .  S
C54          H60   1.111       .  S
C55          H61   1.087       .  S
C55          C56   1.358       .  D
C57          H62   1.085       .  S
C57          C58   1.371       .  D
C58         C124   1.498       .  S
C63          N64   1.355       .  A
C63         N282   1.357       .  A
C63         C144   1.470       .  S
N64         C279   1.356       .  A
C65          N66   1.361       .  A
C65         N278   1.356   1_554  A
C65          C84   1.474       .  S
N66          C67   1.363       .  A
C67          N68   1.360       .  A
C67         C164   1.491       .  S
N68         C277   1.357   1_554  A
C69          N74   1.359       .  A
C69         N284   1.357       .  A
C69          C95   1.477       .  S
N70          C71   1.357       .  A
N70         C283   1.357   1_554  A
C71          N72   1.361       .  A
C71         C115   1.480       .  S
N72          C73   1.362       .  A
C73         N288   1.361   1_554  A
C73          C75   1.511       .  S
N74         C287   1.361       .  A
C75          C76   1.429       .  A
C75         C294   1.430   1_554  A
C76          C77   1.409       .  A
C76         Br88   1.929       .  S
C77          C78   1.401       .  A
C77         Br92   1.937       .  S
C78          C81   1.484       .  S
C78         C293   1.403   1_554  A
C79          C80   1.410       .  A
C79         C292   1.403       .  A
C79         Br87   1.935       .  S
C80         C289   1.430       .  A
C80         Br91   1.934       .  S
C81          C82   1.409       .  A
C81         C300   1.409       .  A
C82          C83   1.407   1_565  A
C82         Br93   1.931   1_455  S
C83          C84   1.409       .  A
C83        Br517   1.927   1_455  S
C84         C299   1.409       .  A
C85          C86   1.406   1_545  A
C85         C298   1.409       .  A
C85         Br94   1.929       .  S
C86         C295   1.409       .  A
C86         Br90   1.929       .  S
Br89        C511   1.927       .  S
C95          C96   1.409       .  A
C95         C100   1.411       .  A
C96          C97   1.408       .  A
C96        Br108   1.929       .  S
C97          C98   1.410       .  A
C97        Br112   1.929       .  S
C98         C101   1.486       .  S
C98          C99   1.409       .  A
C99         C100   1.408       .  A
C99        Br107   1.929       .  S
C100       Br111   1.929   1_455  S
C101        C102   1.405       .  A
C101        C106   1.404       .  A
C102        C103   1.411       .  A
C102       Br113   1.931       .  S
C103        C104   1.425       .  A
C103       Br109   1.934       .  S
C104        C105   1.427       .  A
C105        C106   1.408       .  A
C105       Br114   1.938       .  S
C106       Br110   1.933       .  S
C115        C116   1.411       .  A
C115        C120   1.410       .  A
C116        C117   1.410       .  A
C116       Br128   1.930   1_455  S
C117        C118   1.411       .  A
C117       Br132   1.930   1_455  S
C118        C121   1.490       .  S
C118        C119   1.411       .  A
C119        C120   1.407       .  A
C119       Br127   1.931       .  S
C120       Br131   1.929       .  S
C121        C122   1.408       .  A
C121        C126   1.408       .  A
C122        C123   1.409       .  A
C122       Br133   1.930       .  S
C123        C124   1.417       .  A
C123       Br129   1.932   1_455  S
C124        C125   1.416       .  A
C125        C126   1.408       .  A
C125       Br134   1.925       .  S
C126       Br130   1.933       .  S
C135        C136   1.427       .  A
C135        C140   1.431       .  A
C136        C137   1.410       .  A
C136       Br148   1.930       .  S
C137        C138   1.404       .  A
C137       Br152   1.934       .  S
C138        C141   1.485       .  S
C138        C139   1.403       .  A
C139        C140   1.409       .  A
C139       Br147   1.934       .  S
C140       Br151   1.940       .  S
C141        C142   1.409       .  A
C141        C146   1.411       .  A
C142        C143   1.407       .  A
C142       Br581   1.928   1_455  S
C143        C144   1.407       .  A
C143       Br577   1.929   1_455  S
C144        C145   1.408       .  A
C145        C146   1.407       .  A
C145       Br154   1.929       .  S
C146       Br150   1.931       .  S
Br149       C571   1.929       .  S
Br153       C570   1.928       .  S
C155        C156   1.413       .  A
C155        C160   1.412       .  A
C156        C157   1.408       .  A
C156       Br168   1.930       .  S
C157        C158   1.409       .  A
C157       Br172   1.931       .  S
C158        C161   1.489       .  S
C158        C159   1.409       .  A
C159        C160   1.410       .  A
C159       Br167   1.930   1_455  S
C160       Br171   1.920   1_455  S
C161        C162   1.407       .  A
C161        C166   1.409       .  A
C162        C163   1.409       .  A
C162       Br173   1.931       .  S
C163        C164   1.418       .  A
C163       Br169   1.932       .  S
C164        C165   1.416       .  A
C165        C166   1.409       .  A
C165       Br602   1.929       .  S
C166       Br598   1.931       .  S
Br170       C594   1.931       .  S
Br174       C593   1.929       .  S
C175        C176   1.419       .  A
C175        C180   1.418       .  A
C176        C177   1.408       .  A
C176       Br188   1.929       .  S
C177        C178   1.405       .  A
C177       Br192   1.932       .  S
C178        C181   1.486       .  S
C178        C179   1.408       .  A
C179        C180   1.410       .  A
C179       Br187   1.932       .  S
C180       Br191   1.932       .  S
C181        C182   1.408       .  A
C181        C186   1.409       .  A
C182        C183   1.406       .  A
C182       Br193   1.931       .  S
C183        C184   1.412       .  A
C183       Br189   1.932       .  S
C184        C185   1.412       .  A
C185        C186   1.410       .  A
C185       Br194   1.930       .  S
C186       Br190   1.929       .  S
C195        C196   1.416       .  A
C195        C200   1.417       .  A
C196        C197   1.409       .  A
C196       Br208   1.924       .  S
C197        C198   1.407       .  A
C197       Br212   1.933       .  S
C198        C201   1.488       .  S
C198        C199   1.408       .  A
C199        C200   1.410       .  A
C199       Br207   1.930       .  S
C200       Br211   1.931       .  S
C201        C202   1.408       .  A
C201        C206   1.409       .  A
C202        C203   1.407       .  A
C202       Br213   1.931       .  S
C203        C204   1.415       .  A
C203       Br209   1.933       .  S
C204        C205   1.413       .  A
C205        C206   1.410       .  A
C205       Br214   1.930       .  S
C206       Br210   1.929       .  S
C215        N216   1.361       .  A
C215        N220   1.367       .  A
C215        C418   1.485       .  S
N216        C217   1.354       .  A
C217        N218   1.352       .  A
C217        C243   1.454       .  S
N218        C219   1.352       .  A
C219        N220   1.363       .  A
C219        C255   1.477       .  S
C221        N222   1.365       .  A
C221        N226   1.364       .  A
C221        C389   1.492       .  S
N222        C223   1.358       .  A
C223        N224   1.352       .  A
C223        C246   1.457       .  S
N224        C225   1.350       .  A
C225        N226   1.360       .  A
C225        C270   1.472       .  S
C227        N228   1.363       .  A
C227        N232   1.366       .  A
C227        C398   1.480       .  S
N228        C657   1.354       .  A
C229        N656   1.354   1_455  A
C229        N230   1.353       .  A
C229        C244   1.458       .  S
N230        C231   1.353       .  A
C231        N660   1.360   1_455  A
C231        C267   1.474       .  S
N232        C659   1.360       .  A
O233       Ni241   1.905       .  S
O233        C243   1.277       .  A
O234       Ni241   1.908       .  S
O234        C244   1.278       .  A
O235       Ni241   1.914       .  S
O235        C245   1.280       .  A
O236       Ni241   1.910       .  S
O236        C246   1.279       .  A
O237       Ni242   1.922       .  S
O237        C246   1.280       .  A
O238       Ni242   1.920       .  S
O238        C245   1.280       .  A
O239       Ni242   1.924       .  S
O239        C244   1.282       .  A
O240       Ni242   1.922       .  S
O240        C243   1.281       .  A
Ni241      Ni242   2.394       .  S
C245        C249   1.459       .  S
C247        N248   1.364       .  A
C247        N252   1.368       .  A
C247        C409   1.493       .  S
N248        C677   1.355       .  A
C249        N676   1.355   1_455  A
C249        N250   1.353       .  A
N250        C251   1.351       .  A
C251        N680   1.364   1_455  A
C251        C258   1.479       .  S
N252        C679   1.364       .  A
C253        C254   1.545       .  S
C253        C259   1.547       .  S
C253        C257   1.549       .  S
C253        C349   1.550       .  S
C254        H261   1.089       .  S
C254        C255   1.361       .  D
C255        C256   1.534       .  S
C256        C260   1.540       .  S
C256        C258   1.542       .  S
C256        H262   1.111       .  S
C257        H263   1.086       .  S
C257        C258   1.362       .  D
C259        H264   1.074       .  S
C259        C260   1.370       .  D
C260        C369   1.492       .  S
C265        C266   1.553       .  S
C265        C271   1.544       .  S
C265        C269   1.535       .  S
C265        C318   1.545       .  S
C266        H273   1.085       .  S
C266        C267   1.364       .  D
C267        C268   1.531       .  S
C268        C272   1.544       .  S
C268        C270   1.538       .  S
C268        H274   1.111       .  S
C269        H275   1.087       .  S
C269        C270   1.358       .  D
C271        H276   1.084       .  S
C271        C272   1.371       .  D
C272        C338   1.498       .  S
C277        N278   1.355       .  A
C277        C358   1.470       .  S
C279        N280   1.361       .  A
C279        C298   1.474       .  S
N280        C281   1.363       .  A
C281        N282   1.360       .  A
C281        C378   1.491       .  S
C283        N288   1.359       .  A
C283        C309   1.477       .  S
N284        C285   1.357       .  A
C285        N286   1.361       .  A
C285        C329   1.480       .  S
N286        C287   1.362       .  A
C287        C289   1.511       .  S
C289        C290   1.429       .  A
C290        C291   1.409       .  A
C290       Br302   1.929       .  S
C291        C292   1.401       .  A
C291       Br306   1.937       .  S
C292        C295   1.484       .  S
C293        C294   1.410       .  A
C293       Br301   1.935       .  S
C294       Br305   1.934       .  S
C295        C296   1.409       .  A
C296        C297   1.407   1_565  A
C296       Br307   1.931   1_455  S
C297        C298   1.409       .  A
C297       Br731   1.927   1_455  S
C299        C300   1.406   1_545  A
C299       Br308   1.929   1_554  S
C300       Br304   1.929   1_554  S
Br303       C725   1.927       .  S
C309        C310   1.409       .  A
C309        C314   1.411       .  A
C310        C311   1.408       .  A
C310       Br322   1.929       .  S
C311        C312   1.410       .  A
C311       Br326   1.929       .  S
C312        C315   1.486       .  S
C312        C313   1.409       .  A
C313        C314   1.408       .  A
C313       Br321   1.929       .  S
C314       Br325   1.929   1_455  S
C315        C316   1.405       .  A
C315        C320   1.404       .  A
C316        C317   1.411       .  A
C316       Br327   1.931       .  S
C317        C318   1.425       .  A
C317       Br323   1.934       .  S
C318        C319   1.427       .  A
C319        C320   1.408       .  A
C319       Br328   1.938       .  S
C320       Br324   1.933       .  S
C329        C330   1.411       .  A
C329        C334   1.410       .  A
C330        C331   1.410       .  A
C330       Br342   1.930   1_455  S
C331        C332   1.411       .  A
C331       Br346   1.930   1_455  S
C332        C335   1.490       .  S
C332        C333   1.411       .  A
C333        C334   1.407       .  A
C333       Br341   1.931       .  S
C334       Br345   1.929       .  S
C335        C336   1.408       .  A
C335        C340   1.408       .  A
C336        C337   1.409       .  A
C336       Br347   1.930       .  S
C337        C338   1.417       .  A
C337       Br343   1.932   1_455  S
C338        C339   1.416       .  A
C339        C340   1.408       .  A
C339       Br348   1.925       .  S
C340       Br344   1.933       .  S
C349        C350   1.427       .  A
C349        C354   1.431       .  A
C350        C351   1.410       .  A
C350       Br362   1.930       .  S
C351        C352   1.404       .  A
C351       Br366   1.934       .  S
C352        C355   1.485       .  S
C352        C353   1.403       .  A
C353        C354   1.409       .  A
C353       Br361   1.934       .  S
C354       Br365   1.940       .  S
C355        C356   1.409       .  A
C355        C360   1.411       .  A
C356        C357   1.407       .  A
C356       Br795   1.928   1_455  S
C357        C358   1.407       .  A
C357       Br791   1.929   1_455  S
C358        C359   1.408       .  A
C359        C360   1.407       .  A
C359       Br368   1.929       .  S
C360       Br364   1.931       .  S
Br363       C785   1.929       .  S
Br367       C784   1.928       .  S
C369        C370   1.413       .  A
C369        C374   1.412       .  A
C370        C371   1.408       .  A
C370       Br382   1.930       .  S
C371        C372   1.409       .  A
C371       Br386   1.931       .  S
C372        C375   1.489       .  S
C372        C373   1.409       .  A
C373        C374   1.410       .  A
C373       Br381   1.930   1_455  S
C374       Br385   1.920   1_455  S
C375        C376   1.407       .  A
C375        C380   1.409       .  A
C376        C377   1.409       .  A
C376       Br387   1.931       .  S
C377        C378   1.418       .  A
C377       Br383   1.932       .  S
C378        C379   1.416       .  A
C379        C380   1.409       .  A
C379       Br816   1.929       .  S
C380       Br812   1.931       .  S
Br384       C808   1.931       .  S
Br388       C807   1.929       .  S
C389        C390   1.419       .  A
C389        C394   1.418       .  A
C390        C391   1.408       .  A
C390       Br402   1.929       .  S
C391        C392   1.405       .  A
C391       Br406   1.932       .  S
C392        C395   1.486       .  S
C392        C393   1.408       .  A
C393        C394   1.410       .  A
C393       Br401   1.932       .  S
C394       Br405   1.932       .  S
C395        C396   1.408       .  A
C395        C400   1.409       .  A
C396        C397   1.406       .  A
C396       Br407   1.931       .  S
C397        C398   1.412       .  A
C397       Br403   1.932       .  S
C398        C399   1.412       .  A
C399        C400   1.410       .  A
C399       Br408   1.930       .  S
C400       Br404   1.929       .  S
C409        C410   1.416       .  A
C409        C414   1.417       .  A
C410        C411   1.409       .  A
C410       Br422   1.924       .  S
C411        C412   1.407       .  A
C411       Br426   1.933       .  S
C412        C415   1.488       .  S
C412        C413   1.408       .  A
C413        C414   1.410       .  A
C413       Br421   1.930       .  S
C414       Br425   1.931       .  S
C415        C416   1.408       .  A
C415        C420   1.409       .  A
C416        C417   1.407       .  A
C416       Br427   1.931       .  S
C417        C418   1.415       .  A
C417       Br423   1.933       .  S
C418        C419   1.413       .  A
C419        C420   1.410       .  A
C419       Br428   1.930       .  S
C420       Br424   1.929       .  S
C429        N430   1.361       .  A
C429        N434   1.367       .  A
C429        C632   1.485       .  S
N430        C431   1.354       .  A
C431        N432   1.352       .  A
C431        C457   1.454       .  S
N432        C433   1.352       .  A
C433        N434   1.363       .  A
C433        C469   1.477       .  S
C435        N436   1.365       .  A
C435        N440   1.364       .  A
C435        C603   1.492       .  S
N436        C437   1.358       .  A
C437        N438   1.352       .  A
C437        C460   1.457       .  S
N438        C439   1.350       .  A
C439        N440   1.360       .  A
C439        C484   1.472       .  S
C441        N442   1.363       .  A
C441        N446   1.366       .  A
C441        C612   1.480       .  S
C443        N444   1.353       .  A
C443        C458   1.458       .  S
N444        C445   1.353       .  A
C445        C481   1.474       .  S
O447       Ni455   1.905       .  S
O447        C457   1.277       .  A
O448       Ni455   1.908       .  S
O448        C458   1.278       .  A
O449       Ni455   1.914       .  S
O449        C459   1.280       .  A
O450       Ni455   1.910       .  S
O450        C460   1.279       .  A
O451       Ni456   1.922       .  S
O451        C460   1.280       .  A
O452       Ni456   1.920       .  S
O452        C459   1.280       .  A
O453       Ni456   1.924       .  S
O453        C458   1.282       .  A
O454       Ni456   1.922       .  S
O454        C457   1.281       .  A
Ni455      Ni456   2.394       .  S
C459        C463   1.459       .  S
C461        N462   1.364       .  A
C461        N466   1.368       .  A
C461        C623   1.493       .  S
C463        N464   1.353       .  A
N464        C465   1.351       .  A
C465        C472   1.479       .  S
C467        C468   1.545       .  S
C467        C473   1.547       .  S
C467        C471   1.549       .  S
C467        C563   1.550       .  S
C468        H475   1.089       .  S
C468        C469   1.361       .  D
C469        C470   1.534       .  S
C470        C474   1.540       .  S
C470        C472   1.542       .  S
C470        H476   1.111       .  S
C471        H477   1.086       .  S
C471        C472   1.362       .  D
C473        H478   1.074       .  S
C473        C474   1.370       .  D
C474        C583   1.492       .  S
C479        C480   1.553       .  S
C479        C485   1.544       .  S
C479        C483   1.535       .  S
C479        C532   1.545       .  S
C480        H487   1.085       .  S
C480        C481   1.364       .  D
C481        C482   1.531       .  S
C482        C486   1.544       .  S
C482        C484   1.538       .  S
C482        H488   1.111       .  S
C483        H489   1.087       .  S
C483        C484   1.358       .  D
C485        H490   1.085       .  S
C485        C486   1.371       .  D
C486        C552   1.498       .  S
C491        N492   1.355       .  A
C491        N710   1.357       .  A
C491        C572   1.470       .  S
N492        C707   1.356       .  A
C493        N706   1.356   1_554  A
C493        N494   1.361       .  A
C493        C512   1.474       .  S
N494        C495   1.363       .  A
C495        N496   1.360       .  A
C495        C592   1.491       .  S
N496        C705   1.357   1_554  A
C497        N712   1.357       .  A
C497        N502   1.359       .  A
C497        C523   1.477       .  S
N498        C711   1.357   1_554  A
N498        C499   1.357       .  A
C499        N500   1.361       .  A
C499        C543   1.480       .  S
N500        C501   1.362       .  A
C501        N716   1.361   1_554  A
C501        C503   1.511       .  S
N502        C715   1.361       .  A
C503        C504   1.429       .  A
C503        C722   1.430   1_554  A
C504        C505   1.409       .  A
C504       Br516   1.929       .  S
C505        C506   1.401       .  A
C505       Br520   1.937       .  S
C506        C509   1.484       .  S
C506        C721   1.403   1_554  A
C507        C720   1.403       .  A
C507        C508   1.410       .  A
C507       Br515   1.935       .  S
C508        C717   1.430       .  A
C508       Br519   1.934       .  S
C509        C510   1.409       .  A
C509        C728   1.409       .  A
C510        C511   1.407   1_565  A
C510       Br521   1.931       .  S
C511        C512   1.409       .  A
C512        C727   1.409       .  A
C513        C726   1.409       .  A
C513        C514   1.406   1_545  A
C513       Br522   1.929       .  S
C514        C723   1.409       .  A
C514       Br518   1.929       .  S
C523        C524   1.409       .  A
C523        C528   1.411       .  A
C524        C525   1.408       .  A
C524       Br536   1.929       .  S
C525        C526   1.410       .  A
C525       Br540   1.929       .  S
C526        C529   1.486       .  S
C526        C527   1.409       .  A
C527        C528   1.408       .  A
C527       Br535   1.929       .  S
C528       Br539   1.929       .  S
C529        C530   1.405       .  A
C529        C534   1.404       .  A
C530        C531   1.411       .  A
C530       Br541   1.931       .  S
C531        C532   1.425       .  A
C531       Br537   1.934       .  S
C532        C533   1.427       .  A
C533        C534   1.408       .  A
C533       Br542   1.938       .  S
C534       Br538   1.933       .  S
C543        C544   1.411       .  A
C543        C548   1.410       .  A
C544        C545   1.410       .  A
C544       Br556   1.930       .  S
C545        C546   1.411       .  A
C545       Br560   1.930       .  S
C546        C549   1.490       .  S
C546        C547   1.411       .  A
C547        C548   1.407       .  A
C547       Br555   1.931       .  S
C548       Br559   1.929       .  S
C549        C550   1.408       .  A
C549        C554   1.408       .  A
C550        C551   1.409       .  A
C550       Br561   1.930       .  S
C551        C552   1.417       .  A
C551       Br557   1.932       .  S
C552        C553   1.416       .  A
C553        C554   1.408       .  A
C553       Br562   1.925       .  S
C554       Br558   1.933       .  S
C563        C564   1.427       .  A
C563        C568   1.431       .  A
C564        C565   1.410       .  A
C564       Br576   1.930       .  S
C565        C566   1.404       .  A
C565       Br580   1.934       .  S
C566        C569   1.485       .  S
C566        C567   1.403       .  A
C567        C568   1.409       .  A
C567       Br575   1.934       .  S
C568       Br579   1.940       .  S
C569        C570   1.409       .  A
C569        C574   1.411       .  A
C570        C571   1.407       .  A
C571        C572   1.407       .  A
C572        C573   1.408       .  A
C573        C574   1.407       .  A
C573       Br582   1.929       .  S
C574       Br578   1.931       .  S
C583        C584   1.413       .  A
C583        C588   1.412       .  A
C584        C585   1.408       .  A
C584       Br596   1.930       .  S
C585        C586   1.409       .  A
C585       Br600   1.931       .  S
C586        C589   1.489       .  S
C586        C587   1.409       .  A
C587        C588   1.410       .  A
C587       Br595   1.930       .  S
C588       Br599   1.920       .  S
C589        C590   1.407       .  A
C589        C594   1.409       .  A
C590        C591   1.409       .  A
C590       Br601   1.931       .  S
C591        C592   1.418       .  A
C591       Br597   1.932       .  S
C592        C593   1.416       .  A
C593        C594   1.409       .  A
C603        C604   1.419       .  A
C603        C608   1.418       .  A
C604        C605   1.408       .  A
C604       Br616   1.929       .  S
C605        C606   1.405       .  A
C605       Br620   1.932       .  S
C606        C609   1.486       .  S
C606        C607   1.408       .  A
C607        C608   1.410       .  A
C607       Br615   1.932       .  S
C608       Br619   1.932       .  S
C609        C610   1.408       .  A
C609        C614   1.409       .  A
C610        C611   1.406       .  A
C610       Br621   1.931       .  S
C611        C612   1.412       .  A
C611       Br617   1.932       .  S
C612        C613   1.412       .  A
C613        C614   1.410       .  A
C613       Br622   1.930       .  S
C614       Br618   1.929       .  S
C623        C624   1.416       .  A
C623        C628   1.417       .  A
C624        C625   1.409       .  A
C624       Br636   1.924       .  S
C625        C626   1.407       .  A
C625       Br640   1.933       .  S
C626        C629   1.488       .  S
C626        C627   1.408       .  A
C627        C628   1.410       .  A
C627       Br635   1.930       .  S
C628       Br639   1.931       .  S
C629        C630   1.408       .  A
C629        C634   1.409       .  A
C630        C631   1.407       .  A
C630       Br641   1.931       .  S
C631        C632   1.415       .  A
C631       Br637   1.933       .  S
C632        C633   1.413       .  A
C633        C634   1.410       .  A
C633       Br642   1.930       .  S
C634       Br638   1.929       .  S
C643        N644   1.361       .  A
C643        N648   1.367       .  A
C643        C846   1.485       .  S
N644        C645   1.354       .  A
C645        N646   1.352       .  A
C645        C671   1.454       .  S
N646        C647   1.352       .  A
C647        N648   1.363       .  A
C647        C683   1.477       .  S
C649        N650   1.365       .  A
C649        N654   1.364       .  A
C649        C817   1.492       .  S
N650        C651   1.358       .  A
C651        N652   1.352       .  A
C651        C674   1.457       .  S
N652        C653   1.350       .  A
C653        N654   1.360       .  A
C653        C698   1.472       .  S
C655        N656   1.363       .  A
C655        N660   1.366       .  A
C655        C826   1.480       .  S
C657        N658   1.353       .  A
C657        C672   1.458       .  S
N658        C659   1.353       .  A
C659        C695   1.474       .  S
O661       Ni669   1.905       .  S
O661        C671   1.277       .  A
O662       Ni669   1.908       .  S
O662        C672   1.278       .  A
O663       Ni669   1.914       .  S
O663        C673   1.280       .  A
O664       Ni669   1.910       .  S
O664        C674   1.279       .  A
O665       Ni670   1.922       .  S
O665        C674   1.280       .  A
O666       Ni670   1.920       .  S
O666        C673   1.280       .  A
O667       Ni670   1.924       .  S
O667        C672   1.282       .  A
O668       Ni670   1.922       .  S
O668        C671   1.281       .  A
Ni669      Ni670   2.394       .  S
C673        C677   1.459       .  S
C675        N676   1.364       .  A
C675        N680   1.368       .  A
C675        C837   1.493       .  S
C677        N678   1.353       .  A
N678        C679   1.351       .  A
C679        C686   1.479       .  S
C681        C682   1.545       .  S
C681        C687   1.547       .  S
C681        C685   1.548       .  S
C681        C777   1.550       .  S
C682        H689   1.089       .  S
C682        C683   1.361       .  D
C683        C684   1.534       .  S
C684        C688   1.540       .  S
C684        C686   1.542       .  S
C684        H690   1.111       .  S
C685        H691   1.086       .  S
C685        C686   1.362       .  D
C687        H692   1.074       .  S
C687        C688   1.370       .  D
C688        C797   1.492       .  S
C693        C694   1.553       .  S
C693        C699   1.544       .  S
C693        C697   1.535       .  S
C693        C746   1.545       .  S
C694        H701   1.085       .  S
C694        C695   1.364       .  D
C695        C696   1.531       .  S
C696        C700   1.544       .  S
C696        C698   1.538       .  S
C696        H702   1.111       .  S
C697        H703   1.087       .  S
C697        C698   1.358       .  D
C699        H704   1.084       .  S
C699        C700   1.371       .  D
C700        C766   1.498       .  S
C705        N706   1.355       .  A
C705        C786   1.470       .  S
C707        N708   1.361       .  A
C707        C726   1.474       .  S
N708        C709   1.363       .  A
C709        N710   1.360       .  A
C709        C806   1.491       .  S
C711        N716   1.359       .  A
C711        C737   1.477       .  S
N712        C713   1.357       .  A
C713        N714   1.361       .  A
C713        C757   1.480       .  S
N714        C715   1.362       .  A
C715        C717   1.511       .  S
C717        C718   1.429       .  A
C718        C719   1.409       .  A
C718       Br730   1.929       .  S
C719        C720   1.401       .  A
C719       Br734   1.937       .  S
C720        C723   1.484       .  S
C721        C722   1.410       .  A
C721       Br729   1.935       .  S
C722       Br733   1.934       .  S
C723        C724   1.409       .  A
C724        C725   1.407   1_565  A
C724       Br735   1.931       .  S
C725        C726   1.409       .  A
C727        C728   1.406   1_545  A
C727       Br736   1.929   1_554  S
C728       Br732   1.929   1_554  S
C737        C738   1.409       .  A
C737        C742   1.411       .  A
C738        C739   1.408       .  A
C738       Br750   1.929       .  S
C739        C740   1.410       .  A
C739       Br754   1.929       .  S
C740        C743   1.486       .  S
C740        C741   1.409       .  A
C741        C742   1.408       .  A
C741       Br749   1.929       .  S
C742       Br753   1.929       .  S
C743        C744   1.405       .  A
C743        C748   1.404       .  A
C744        C745   1.411       .  A
C744       Br755   1.931       .  S
C745        C746   1.425       .  A
C745       Br751   1.934       .  S
C746        C747   1.427       .  A
C747        C748   1.408       .  A
C747       Br756   1.938       .  S
C748       Br752   1.933       .  S
C757        C758   1.411       .  A
C757        C762   1.410       .  A
C758        C759   1.410       .  A
C758       Br770   1.930       .  S
C759        C760   1.411       .  A
C759       Br774   1.930       .  S
C760        C763   1.490       .  S
C760        C761   1.411       .  A
C761        C762   1.407       .  A
C761       Br769   1.931       .  S
C762       Br773   1.929       .  S
C763        C764   1.408       .  A
C763        C768   1.408       .  A
C764        C765   1.409       .  A
C764       Br775   1.930       .  S
C765        C766   1.417       .  A
C765       Br771   1.932       .  S
C766        C767   1.416       .  A
C767        C768   1.408       .  A
C767       Br776   1.925       .  S
C768       Br772   1.933       .  S
C777        C778   1.427       .  A
C777        C782   1.431       .  A
C778        C779   1.410       .  A
C778       Br790   1.930       .  S
C779        C780   1.404       .  A
C779       Br794   1.934       .  S
C780        C783   1.485       .  S
C780        C781   1.403       .  A
C781        C782   1.409       .  A
C781       Br789   1.934       .  S
C782       Br793   1.940       .  S
C783        C784   1.409       .  A
C783        C788   1.411       .  A
C784        C785   1.407       .  A
C785        C786   1.407       .  A
C786        C787   1.408       .  A
C787        C788   1.407       .  A
C787       Br796   1.929       .  S
C788       Br792   1.931       .  S
C797        C798   1.413       .  A
C797        C802   1.412       .  A
C798        C799   1.408       .  A
C798       Br810   1.930       .  S
C799        C800   1.409       .  A
C799       Br814   1.931       .  S
C800        C803   1.489       .  S
C800        C801   1.409       .  A
C801        C802   1.410       .  A
C801       Br809   1.930       .  S
C802       Br813   1.920       .  S
C803        C804   1.407       .  A
C803        C808   1.409       .  A
C804        C805   1.409       .  A
C804       Br815   1.931       .  S
C805        C806   1.418       .  A
C805       Br811   1.932       .  S
C806        C807   1.416       .  A
C807        C808   1.409       .  A
C817        C818   1.419       .  A
C817        C822   1.418       .  A
C818        C819   1.408       .  A
C818       Br830   1.929       .  S
C819        C820   1.405       .  A
C819       Br834   1.932       .  S
C820        C823   1.486       .  S
C820        C821   1.408       .  A
C821        C822   1.410       .  A
C821       Br829   1.932       .  S
C822       Br833   1.932       .  S
C823        C824   1.408       .  A
C823        C828   1.409       .  A
C824        C825   1.406       .  A
C824       Br835   1.931       .  S
C825        C826   1.412       .  A
C825       Br831   1.932       .  S
C826        C827   1.412       .  A
C827        C828   1.410       .  A
C827       Br836   1.930       .  S
C828       Br832   1.929       .  S
C837        C838   1.416       .  A
C837        C842   1.417       .  A
C838        C839   1.409       .  A
C838       Br850   1.924       .  S
C839        C840   1.407       .  A
C839       Br854   1.933       .  S
C840        C843   1.488       .  S
C840        C841   1.408       .  A
C841        C842   1.410       .  A
C841       Br849   1.930       .  S
C842       Br853   1.931       .  S
C843        C844   1.408       .  A
C843        C848   1.409       .  A
C844        C845   1.407       .  A
C844       Br855   1.931       .  S
C845        C846   1.415       .  A
C845       Br851   1.933       .  S
C846        C847   1.413       .  A
C847        C848   1.410       .  A
C847       Br856   1.930       .  S
C848       Br852   1.929       .  S
