geometry optimzed in LAMMPS
_audit_creation_date              2020-11-30 
_audit_creation_method            'lammps2cif' 
_symmetry_space_group_name_H-M    'P1' 
_symmetry_Int_Tables_number       1 
_symmetry_cell_setting            triclinic 
loop_ 
_symmetry_equiv_pos_as_xyz 
  x,y,z 
_cell_length_a                    44.85833412 
_cell_length_b                    44.98074759895328 
_cell_length_c                    33.22775096964625 
_cell_angle_alpha                 89.95182359888248 
_cell_angle_beta                  90.02148951027765 
_cell_angle_gamma                 121.72947263615453 
loop_ 
_atom_site_label 
_atom_site_type_symbol 
_atom_site_fract_x 
_atom_site_fract_y 
_atom_site_fract_z 
_atom_site_charge 
C1          C  0.33362019  0.16722134  0.70938916     0.45700
H2          H  0.33301205  0.16701878  0.67593816    -0.03300
C3          C  0.33500548  0.16760815  0.78765636     0.45700
H4          H  0.33503295  0.16754919  0.82101473    -0.03300
C5          C  0.35172975  0.20406037  0.72740417    -0.17000
C6          C  0.29720042  0.14726375  0.72871297    -0.16800
C7          C  0.35337250  0.15098007  0.72715398    -0.17200
C8          C  0.35237720  0.20453096  0.76887653    -0.17200
C9          C  0.29766525  0.14739052  0.77008377    -0.16700
C10         C  0.35366708  0.15028512  0.76866839    -0.17000
C11         C  0.16170854  0.33903008  0.28911859     0.45700
H12         H  0.16193293  0.33984129  0.32250333    -0.03300
C13         C  0.16141323  0.33735275  0.21078969     0.45700
H14         H  0.16135569  0.33667909  0.17733385    -0.03300
C15         C  0.19861844  0.35760554  0.27030039    -0.17000
C16         C  0.14291624  0.30172639  0.27175990    -0.16800
C17         C  0.14325996  0.35627579  0.26969978    -0.17200
C18         C  0.19812684  0.35675894  0.22893879    -0.17200
C19         C  0.14313841  0.30114709  0.23031995    -0.16700
C20         C  0.14325033  0.35519874  0.22829692    -0.17000
O21         O  0.43267189  0.49447522  0.05500871    -0.78300
C22         C  0.03792960  0.08414864  0.06409004     0.82800
O23         O  0.47517005  0.02733891  0.91499218    -0.78200
O24         O  0.08163382  0.04771505  0.97391034    -0.80900
O25         O  0.00474715  0.44564113  0.05907546    -0.80700
O26         O  0.42892893  0.44310739  0.05427466    -0.79300
Zn27       Zn  0.47418865  0.02829594  0.01775117     1.55700
O28         O  0.05677612  0.49538886  0.05531916    -0.80700
Cd29       Cd  0.47291664  0.45410069  0.02193326     1.59700
Cd30       Cd  0.49742987  0.00116634  0.93997578     1.59600
O31         O  0.45685183  0.41858076  0.97500720    -0.80700
O32         O  0.49678358  0.00368905  0.00018238    -1.91200
Cd33       Cd  0.04583533  0.02905881  0.02023880     1.59900
O34         O  0.47068449  0.45127805  0.91966637    -0.80600
O35         O  0.05622536  0.07086328  0.05602084    -0.79300
C36         C  0.46232744  0.04376823  0.93149107     0.83200
C37         C  0.41719421  0.46227744  0.06493495     0.82900
O38         O  0.00677371  0.07077449  0.05081424    -0.78200
C39         C  0.03732175  0.46398060  0.06753948     0.83700
O40         O  0.46086580  0.04588308  0.96960671    -0.78300
C41         C  0.45708393  0.42159999  0.93684282     0.83800
C42         C  0.07895479  0.04241991  0.93607928     0.84200
O43         O  0.04925363  0.02442294  0.91862931    -0.80800
O44         O  0.06273865  0.00844054  0.55317619    -0.78300
C45         C  0.45446383  0.42330368  0.56373205     0.82800
O46         O  0.02451876  0.48009223  0.41670548    -0.79400
O47         O  0.41527948  0.46605958  0.47089913    -0.80900
O48         O  0.49103273  0.05955062  0.55742455    -0.80700
O49         O  0.06503567  0.05893124  0.55684060    -0.79300
Zn50       Zn  0.02083292  0.47882769  0.51897521     1.55700
O51         O  0.43888327  0.00980667  0.55540829    -0.80700
Cd52       Cd  0.02316664  0.05025697  0.52244468     1.59700
Cd53       Cd  0.49652787  0.00276194  0.44034859     1.59600
O54         O  0.04262106  0.08655963  0.47631684    -0.80700
O55         O  0.49639556  0.00097294  0.50064008    -1.91200
Cd56       Cd  0.44925095  0.48018175  0.51888304     1.59900
O57         O  0.02084719  0.05443922  0.42071835    -0.80600
O58         O  0.43563186  0.43512245  0.55162618    -0.79300
C59         C  0.03606186  0.46293771  0.43434935     0.83200
C60         C  0.07738051  0.03991078  0.56552682     0.82900
O61         O  0.48689550  0.43840542  0.55480244    -0.78200
C62         C  0.45871647  0.04141408  0.56692251     0.83700
O63         O  0.03513079  0.45965335  0.47255723    -0.78300
C64         C  0.03837922  0.08399042  0.43828509     0.83800
C65         C  0.41879825  0.46600818  0.43286813     0.84200
O66         O  0.44862894  0.47813882  0.41624020    -0.80800
C67         C  0.12158424  0.16123517  0.16845889    -0.17600
C68         C  0.13637307  0.19162025  0.19182202    -0.19800
C69         C  0.12541188  0.21543360  0.18698992     0.20900
C70         C  0.09932013  0.20860931  0.15828946    -0.02700
C71         C  0.08413707  0.17778699  0.13506200    -0.05800
C72         C  0.09540738  0.15404544  0.14009846     0.21200
C73         C  0.05762954  0.17071371  0.10688530     0.19300
C74         C  0.04698301  0.19474270  0.10169165    -0.17200
C75         C  0.06226504  0.22545072  0.12442008    -0.19500
C76         C  0.08829411  0.23252401  0.15285966     0.20800
C77         C  0.10329414  0.26295348  0.17617605    -0.32500
C78         C  0.12860930  0.26940430  0.20529928     0.01500
C79         C  0.13990573  0.24586169  0.21040442    -0.23800
C80         C  0.08025732  0.12353487  0.11672406    -0.28400
C81         C  0.05349701  0.11611320  0.08897829     0.07200
C82         C  0.04224355  0.13976590  0.08435938    -0.27100
H83         H  0.13051017  0.14326247  0.17270596     0.11900
H84         H  0.15638445  0.19649372  0.21367980     0.13000
H85         H  0.02679314  0.18976654  0.08005107     0.12100
H86         H  0.05356867  0.24358402  0.11992525     0.11300
H87         H  0.09478283  0.28133107  0.17237690     0.16700
H88         H  0.15984453  0.25128195  0.23264412     0.12600
H89         H  0.08898545  0.10533662  0.12045205     0.15500
H90         H  0.02193006  0.13437291  0.06267331     0.15300
C91         C  0.33808079  0.47483279  0.15718542    -0.17600
C92         C  0.30742858  0.46010823  0.18017554    -0.19800
C93         C  0.28379512  0.42383834  0.18031924     0.20900
C94         C  0.29105607  0.40211656  0.15703720    -0.02700
C95         C  0.32227956  0.41693427  0.13437970    -0.05800
C96         C  0.34579193  0.45349219  0.13431531     0.21200
C97         C  0.32996866  0.39519125  0.11186402     0.19300
C98         C  0.30617844  0.35889441  0.11179555    -0.17200
C99         C  0.27496165  0.34423701  0.13377818    -0.19500
C100        C  0.26719421  0.36560205  0.15650369     0.20800
C101        C  0.23621173  0.35114014  0.17905754    -0.32500
C102        C  0.22953304  0.37262624  0.20309358     0.01500
C103        C  0.25316459  0.40886888  0.20353271    -0.23800
C104        C  0.37661752  0.46809785  0.11142955    -0.28400
C105        C  0.38463394  0.44663033  0.08912945     0.07200
C106        C  0.36124176  0.41014438  0.08972341    -0.27100
H107        H  0.35478657  0.00514802  0.15537846     0.11900
H108        H  0.30217764  0.47710825  0.19781345     0.13000
H109        H  0.31166517  0.34184021  0.09462193     0.12100
H110        H  0.25698055  0.31616311  0.13318856     0.11300
H111        H  0.21781008  0.32310526  0.17907553     0.16700
H112        H  0.24764016  0.42524864  0.22205818     0.12600
H113        H  0.39274344  0.99837522  0.10778423     0.15500
H114        H  0.36709441  0.39340118  0.07242200     0.15300
C115        C  0.02550067  0.37484885  0.16389267    -0.17600
C116        C  0.04017137  0.35912665  0.18583489    -0.19800
C117        C  0.07598397  0.37139351  0.18242444     0.20900
C118        C  0.09729182  0.39972606  0.15654392    -0.02700
C119        C  0.08258103  0.41590889  0.13485418    -0.05800
C120        C  0.04647659  0.40327632  0.13845320     0.21200
C121        C  0.10399702  0.44477056  0.10973540     0.19300
C122        C  0.13979532  0.45685536  0.10606960    -0.17200
C123        C  0.15431972  0.44055183  0.12722558    -0.19500
C124        C  0.13334074  0.41210492  0.15266044     0.20800
C125        C  0.14784250  0.39627331  0.17497392    -0.32500
C126        C  0.12692635  0.36904692  0.20185763     0.01500
C127        C  0.09099559  0.35625618  0.20498536    -0.23800
C128        C  0.03193992  0.41923185  0.11651913    -0.28400
C129        C  0.05310118  0.44806138  0.09154794     0.07200
C130        C  0.08918472  0.46089391  0.08858262    -0.27100
H131        H  0.49745855  0.36530549  0.16698553     0.11900
H132        H  0.02351435  0.33741654  0.20557535     0.13000
H133        H  0.15656675  0.47892084  0.08681843     0.12100
H134        H  0.18203609  0.45040485  0.12399291     0.11300
H135        H  0.17562174  0.40597782  0.17276455     0.16700
H136        H  0.07499900  0.33498635  0.22558793     0.12600
H137        H  0.00415118  0.40933508  0.11907710     0.15500
H138        H  0.10559447  0.48294093  0.06910552     0.15300
C139        C  0.03472618  0.14849925  0.32019501    -0.17600
C140        C  0.04851386  0.17935081  0.29788352    -0.19800
C141        C  0.07972206  0.20959211  0.30993514     0.20900
C142        C  0.09720254  0.20885736  0.34485404    -0.02700
C143        C  0.08289255  0.17791580  0.36786012    -0.05800
C144        C  0.05163575  0.14754415  0.35525759     0.21200
C145        C  0.09980888  0.17739183  0.40343489     0.19300
C146        C  0.13117703  0.20762510  0.41527456    -0.17200
C147        C  0.14572952  0.23810767  0.39201195    -0.19500
C148        C  0.12893286  0.23901230  0.35678771     0.20800
C149        C  0.14348612  0.26933149  0.33299784    -0.32500
C150        C  0.12640210  0.27005630  0.29784880     0.01500
C151        C  0.09388176  0.24043900  0.28743380    -0.23800
C152        C  0.03769609  0.11681218  0.37804645    -0.28400
C153        C  0.05401974  0.11624700  0.41388549     0.07200
C154        C  0.08500532  0.14667158  0.42651172    -0.27100
H155        H  0.01070212  0.12542140  0.31014865     0.11900
H156        H  0.03492469  0.17947603  0.27097468     0.13000
H157        H  0.14455521  0.20764833  0.44244280     0.12100
H158        H  0.17009087  0.26101548  0.40163362     0.11300
H159        H  0.16847177  0.29208817  0.34137340     0.16700
H160        H  0.07970146  0.24120203  0.26146887     0.12600
H161        H  0.01366805  0.09350336  0.36838063     0.15500
H162        H  0.09781208  0.14626966  0.45400958     0.15300
C163        C  0.30070763  0.44451523  0.40823100    -0.17600
C164        C  0.26973972  0.42910233  0.38572926    -0.19800
C165        C  0.26584532  0.40899485  0.35162352     0.20900
C166        C  0.29356746  0.40460922  0.33989935    -0.02700
C167        C  0.32504477  0.42067901  0.36215152    -0.05800
C168        C  0.32842867  0.44039005  0.39673360     0.21200
C169        C  0.35296742  0.41674318  0.35001372     0.19300
C170        C  0.34900826  0.39650600  0.31600342    -0.17200
C171        C  0.31754223  0.38000502  0.29442261    -0.19500
C172        C  0.28974001  0.38391973  0.30615388     0.20800
C173        C  0.25820915  0.36755677  0.28466065    -0.32500
C174        C  0.23106491  0.37308001  0.29497527     0.01500
C175        C  0.23485157  0.39339079  0.32888490    -0.23800
C176        C  0.35930564  0.45527551  0.41947276    -0.28400
C177        C  0.38714348  0.45138687  0.40761716     0.07200
C178        C  0.38410062  0.43264208  0.37248485    -0.27100
H179        H  0.30297596  0.45966635  0.43466123     0.11900
H180        H  0.24874450  0.43273802  0.39514767     0.13000
H181        H  0.37012753  0.39315697  0.30632394     0.12100
H182        H  0.31500897  0.36432264  0.26840637     0.11300
H183        H  0.25486668  0.35050433  0.25983644     0.16700
H184        H  0.21389876  0.39748162  0.33718056     0.12600
H185        H  0.36178021  0.47002924  0.44639010     0.15500
H186        H  0.40549783  0.42947199  0.36345511     0.15300
C187        C  0.11807162  0.44990870  0.29262288    -0.17600
C188        C  0.10229037  0.46426387  0.31507014    -0.19800
C189        C  0.08376284  0.44782325  0.35040975     0.20900
C190        C  0.08068620  0.41633679  0.36298248    -0.02700
C191        C  0.09605031  0.40149224  0.33987924    -0.05800
C192        C  0.11520898  0.41863536  0.30486153     0.21200
C193        C  0.09259419  0.36975572  0.35207698     0.19300
C194        C  0.07387295  0.35321097  0.38730015    -0.17200
C195        C  0.05917195  0.36823766  0.41059239    -0.19500
C196        C  0.06255382  0.39985446  0.39880266     0.20800
C197        C  0.04830225  0.41537536  0.42224642    -0.32500
C198        C  0.05114334  0.44665553  0.40974576     0.01500
C199        C  0.06855060  0.46248688  0.37356765    -0.23800
C200        C  0.13136263  0.40435538  0.28281973    -0.28400
C201        C  0.12728869  0.37223037  0.29407761     0.07200
C202        C  0.10796554  0.35519090  0.32889667    -0.27100
H203        H  0.13249336  0.46325403  0.26563141     0.11900
H204        H  0.10487847  0.48843358  0.30499710     0.13000
H205        H  0.07088934  0.32879630  0.39706225     0.12100
H206        H  0.04517347  0.35513092  0.43787720     0.11300
H207        H  0.03460310  0.40291183  0.44993698     0.16700
H208        H  0.07095185  0.48669493  0.36393068     0.12600
H209        H  0.14730248  0.41845048  0.25700314     0.15500
H210        H  0.10465875  0.33043262  0.33778482     0.15300
C211        C  0.40326759  0.04742184  0.80758420    -0.17600
C212        C  0.38615807  0.06091849  0.78603006    -0.19800
C213        C  0.38468042  0.08922227  0.80126693     0.20900
C214        C  0.40072664  0.10416052  0.83840567    -0.02700
C215        C  0.41726491  0.09006504  0.86060686    -0.05800
C216        C  0.41862198  0.06159508  0.84506523     0.21200
C217        C  0.43203237  0.10419515  0.89855493     0.19300
C218        C  0.43086269  0.13271408  0.91354869    -0.17200
C219        C  0.41502981  0.14705569  0.89118951    -0.19500
C220        C  0.39981181  0.13288925  0.85366927     0.20800
C221        C  0.38399945  0.14719250  0.83104365    -0.32500
C222        C  0.36864753  0.13322871  0.79342636     0.01500
C223        C  0.36756876  0.10291907  0.77993634    -0.23800
C224        C  0.43463355  0.04737413  0.86767347    -0.28400
C225        C  0.44831321  0.06061090  0.90609968     0.07200
C226        C  0.44719057  0.08921268  0.92114537    -0.27100
H227        H  0.40408912  0.02559482  0.79517788     0.11900
H228        H  0.37425957  0.04935708  0.75731291     0.13000
H229        H  0.44215510  0.14389739  0.94260423     0.12100
H230        H  0.41454588  0.16915529  0.90333602     0.11300
H231        H  0.38402630  0.16937209  0.84299756     0.16700
H232        H  0.35354831  0.08985911  0.75275454     0.12600
H233        H  0.43529949  0.02521887  0.85603637     0.15500
H234        H  0.45801959  0.09973617  0.95059372     0.15300
C235        C  0.42041172  0.27359571  0.88705989    -0.17600
C236        C  0.43458955  0.30361479  0.91090861    -0.19800
C237        C  0.43041460  0.33133813  0.89992312     0.20900
C238        C  0.41171096  0.32877965  0.86458771    -0.02700
C239        C  0.39664319  0.29808962  0.84107849    -0.05800
C240        C  0.40129755  0.27055348  0.85223358     0.21200
C241        C  0.37687647  0.29490454  0.80653361     0.19300
C242        C  0.37307156  0.32281974  0.79525058    -0.17200
C243        C  0.38874437  0.35362495  0.81799552    -0.19500
C244        C  0.40798391  0.35681325  0.85280374     0.20800
C245        C  0.42340475  0.38739540  0.87617139    -0.32500
C246        C  0.44142452  0.38974793  0.91184482     0.01500
C247        C  0.44463203  0.36155883  0.92363728    -0.23800
C248        C  0.38695397  0.24052887  0.82828016    -0.28400
C249        C  0.36702044  0.23681350  0.79398610     0.07200
C250        C  0.36134942  0.26391146  0.78390749    -0.27100
H251        H  0.42417351  0.25261368  0.89602555     0.11900
H252        H  0.44898172  0.30522644  0.93785323     0.13000
H253        H  0.35816604  0.32091690  0.76866773     0.12100
H254        H  0.38557643  0.37486279  0.80853324     0.11300
H255        H  0.42076041  0.40906835  0.86713572     0.16700
H256        H  0.45881136  0.36346425  0.95092041     0.12600
H257        H  0.39198907  0.22038708  0.83607147     0.15500
H258        H  0.34511420  0.26104098  0.75828103     0.15300
C259        C  0.17653417  0.05016781  0.79918397    -0.17600
C260        C  0.14554742  0.03612807  0.82149018    -0.19800
C261        C  0.14380883  0.05385952  0.85526750     0.20900
C262        C  0.17370724  0.08592681  0.86690113    -0.02700
C263        C  0.20472699  0.10047874  0.84383815    -0.05800
C264        C  0.20611466  0.08246040  0.80988698     0.21200
C265        C  0.23423978  0.13312667  0.85459688     0.19300
C266        C  0.23280324  0.15042919  0.88899039    -0.17200
C267        C  0.20230162  0.13566649  0.91234292    -0.19500
C268        C  0.17254436  0.10359184  0.90136718     0.20800
C269        C  0.14157893  0.08899172  0.92404256    -0.32500
C270        C  0.11143533  0.05749608  0.91202640     0.01500
C271        C  0.11271625  0.04012736  0.87756094    -0.23800
C272        C  0.23691080  0.09719499  0.78696976    -0.28400
C273        C  0.26580445  0.13058282  0.79611831     0.07200
C274        C  0.26444001  0.14810464  0.83044887    -0.27100
H275        H  0.17719471  0.03602008  0.77316146     0.11900
H276        H  0.12291777  0.01139274  0.81229795     0.13000
H277        H  0.25526034  0.17543725  0.89778839     0.12100
H278        H  0.20185161  0.14955012  0.93874233     0.11300
H279        H  0.14069685  0.10247641  0.95062675     0.16700
H280        H  0.08968714  0.01559525  0.86855344     0.12600
H281        H  0.23829834  0.08254313  0.76205088     0.15500
H282        H  0.28663519  0.17372804  0.83794750     0.15300
C283        C  0.35822378  0.05217695  0.60247818    -0.17600
C284        C  0.34391599  0.06863977  0.62354486    -0.19800
C285        C  0.36467560  0.09603114  0.65024238     0.20900
C286        C  0.40028962  0.10721030  0.65560411    -0.02700
C287        C  0.41481618  0.09080914  0.63404053    -0.05800
C288        C  0.39356153  0.06299187  0.60760302     0.21200
C289        C  0.45050505  0.10213854  0.63902905     0.19300
C290        C  0.47123271  0.12955739  0.66580557    -0.17200
C291        C  0.45669266  0.14552006  0.68761853    -0.19500
C292        C  0.42127172  0.13453433  0.68275030     0.20800
C293        C  0.40622207  0.14983980  0.70506214    -0.32500
C294        C  0.37050502  0.13796522  0.70057501     0.01500
C295        C  0.35022111  0.11190758  0.67231278    -0.23800
C296        C  0.40799459  0.04651454  0.58662361    -0.28400
C297        C  0.44358675  0.05789260  0.59100012     0.07200
C298        C  0.46476917  0.08584004  0.61712407    -0.27100
H299        H  0.34162556  0.03093932  0.58218680     0.11900
H300        H  0.31650978  0.05973294  0.61923274     0.13000
H301        H  0.49865744  0.13853024  0.67005008     0.12100
H302        H  0.47313260  0.16640286  0.70837747     0.11300
H303        H  0.42188451  0.17025538  0.72669593     0.16700
H304        H  0.32281194  0.10300194  0.66872980     0.12600
H305        H  0.39168101  0.02529917  0.56613467     0.15500
H306        H  0.49224964  0.09468235  0.62062454     0.15300
C307        C  0.35574826  0.30376916  0.59551624    -0.17600
C308        C  0.34191319  0.27261207  0.61742766    -0.19800
C309        C  0.36188333  0.26911770  0.64747715     0.20900
C310        C  0.39633786  0.29714126  0.65512582    -0.02700
C311        C  0.41035113  0.32850640  0.63288861    -0.05800
C312        C  0.38985724  0.33195925  0.60315212     0.21200
C313        C  0.44486267  0.35640104  0.64046839     0.19300
C314        C  0.46493136  0.35283769  0.67030232    -0.17200
C315        C  0.45098029  0.32188899  0.69249551    -0.19500
C316        C  0.41675666  0.29393261  0.68515979     0.20800
C317        C  0.40244296  0.26303812  0.70772202    -0.32500
C318        C  0.36773082  0.23557114  0.70127494     0.01500
C319        C  0.34785890  0.23839549  0.67049492    -0.23800
C320        C  0.40395664  0.36342408  0.58144210    -0.28400
C321        C  0.43858395  0.39107297  0.58840250     0.07200
C322        C  0.45881496  0.38730031  0.61794274    -0.27100
H323        H  0.33972116  0.30583892  0.57262663     0.11900
H324        H  0.31546301  0.25132796  0.61108293     0.13000
H325        H  0.49144258  0.37404343  0.67652980     0.12100
H326        H  0.46694184  0.31985864  0.71551097     0.11300
H327        H  0.41800859  0.26054686  0.73091377     0.16700
H328        H  0.32113510  0.21709536  0.66537425     0.12600
H329        H  0.38838626  0.36606919  0.55839180     0.15500
H330        H  0.48546433  0.40857710  0.62350119     0.15300
C331        C  0.17795792  0.03618914  0.62100604    -0.17600
C332        C  0.20916986  0.05167571  0.64309675    -0.19800
C333        C  0.22205225  0.08418927  0.66176100     0.20900
C334        C  0.20336561  0.10133118  0.65813533    -0.02700
C335        C  0.17206382  0.08585437  0.63554583    -0.05800
C336        C  0.15922173  0.05306118  0.61700766     0.21200
C337        C  0.15363484  0.10320139  0.63157510     0.19300
C338        C  0.16644787  0.13566207  0.65035374    -0.17200
C339        C  0.19724134  0.15081067  0.67312121    -0.19500
C340        C  0.21585853  0.13386624  0.67723849     0.20800
C341        C  0.24663257  0.14875623  0.70025313    -0.32500
C342        C  0.26514762  0.13170243  0.70392052     0.01500
C343        C  0.25308502  0.09973102  0.68431631    -0.23800
C344        C  0.12798796  0.03782364  0.59468139    -0.28400
C345        C  0.10966079  0.05517525  0.59023732     0.07200
C346        C  0.12273331  0.08785819  0.60886597    -0.27100
H347        H  0.16851097  0.01103399  0.60696209     0.11900
H348        H  0.22318663  0.03816205  0.64569745     0.13000
H349        H  0.15256387  0.14929402  0.64755089     0.12100
H350        H  0.20650732  0.17580034  0.68750470     0.11300
H351        H  0.25626561  0.17355255  0.71534993     0.16700
H352        H  0.26713942  0.08637801  0.68794573     0.12600
H353        H  0.11824255  0.01271667  0.58033629     0.15500
H354        H  0.10880708  0.10144096  0.60579763     0.15300
C355        C  0.33424930  0.66687951  0.71122889     0.45700
H356        H  0.33421283  0.66751028  0.67777843    -0.03300
C357        C  0.33448841  0.66546336  0.78947087     0.45700
H358        H  0.33422184  0.66460807  0.82284301    -0.03300
C359        C  0.35200700  0.70322795  0.73047918    -0.17000
C360        C  0.29751485  0.64671246  0.72962195    -0.16800
C361        C  0.35370277  0.65019797  0.72861565    -0.17200
C362        C  0.35201020  0.70277523  0.77193160    -0.17200
C363        C  0.29733456  0.64582092  0.77100376    -0.16700
C364        C  0.35361598  0.64878724  0.77001034    -0.17000
C365        C  0.16112383  0.84004351  0.28720121     0.45700
H366        H  0.16158997  0.84021809  0.32056033    -0.03300
C367        C  0.15951927  0.83970337  0.20891378     0.45700
H368        H  0.15885055  0.83963673  0.17545738    -0.03300
C369        C  0.19779503  0.85871380  0.26763968    -0.17000
C370        C  0.14171814  0.80302870  0.26902216    -0.16800
C371        C  0.14299174  0.85812749  0.26954418    -0.17200
C372        C  0.19658911  0.85868582  0.22622752    -0.17200
C373        C  0.14142339  0.80313870  0.22754439    -0.16700
C374        C  0.14205771  0.85757865  0.22823404    -0.17000
O375        O  0.43024383  0.99611798  0.04988549    -0.78300
C376        C  0.03906499  0.58355113  0.06642730     0.82800
O377        O  0.47444286  0.52701696  0.91860813    -0.78200
O378        O  0.08199945  0.54708452  0.97480572    -0.80900
O379        O  0.00296534  0.94697272  0.05882505    -0.80700
O380        O  0.42672822  0.94485520  0.05226546    -0.79300
Zn381      Zn  0.47524103  0.52710889  0.02100561     1.55700
O382        O  0.05504107  0.99648382  0.05414532    -0.80700
Cd383      Cd  0.47141637  0.95502636  0.02198930     1.59700
Cd384      Cd  0.49830223  0.50193911  0.94153534     1.59600
O385        O  0.45571733  0.91840660  0.97640894    -0.80700
O386        O  0.49823096  0.50329788  0.00180605    -1.91200
Cd387      Cd  0.04706390  0.52840396  0.02237104     1.59900
O388        O  0.46890139  0.94974447  0.91996161    -0.80600
O389        O  0.05767950  0.57063178  0.05799590    -0.79300
C390        C  0.46064600  0.54222413  0.93581087     0.83200
C391        C  0.41456861  0.96413091  0.06070300     0.82900
O392        O  0.00751840  0.56944957  0.05427843    -0.78200
C393        C  0.03551486  0.96545958  0.06734609     0.83700
O394        O  0.45950797  0.54404904  0.97402386    -0.78300
C395        C  0.45544340  0.92048179  0.93817771     0.83800
C396        C  0.07855860  0.54280584  0.93679524     0.84200
O397        O  0.04852431  0.52547469  0.92003166    -0.80800
O398        O  0.06454780  0.51167195  0.55152148    -0.78300
C399        C  0.45379099  0.91993183  0.56327786     0.82800
O400        O  0.02447427  0.98169009  0.41740257    -0.79400
O401        O  0.41239852  0.96142975  0.47241433    -0.80900
O402        O  0.49412972  0.56378370  0.55481309    -0.80700
O403        O  0.06723001  0.56244377  0.55322786    -0.79300
Zn404      Zn  0.01937885  0.97703886  0.51975299     1.55700
O405        O  0.44192744  0.51409768  0.55345288    -0.80700
Cd406      Cd  0.02467923  0.55226700  0.51879448     1.59700
Cd407      Cd  0.49918018  0.50476792  0.43927022     1.59600
O408        O  0.04305443  0.58744746  0.47166553    -0.80700
O409        O  0.49879059  0.50391849  0.49959200    -1.91200
Cd410      Cd  0.44685305  0.97649245  0.52021220     1.59900
O411        O  0.02341234  0.55451771  0.41641353    -0.80600
O412        O  0.43466387  0.93183124  0.55267353    -0.79300
C413        C  0.03628359  0.96457563  0.43457688     0.83200
C414        C  0.07948897  0.54350823  0.56278450     0.82900
O415        O  0.48594042  0.93498517  0.55320776    -0.78200
C416        C  0.46184780  0.54583035  0.56442900     0.83700
O417        O  0.03458210  0.96012664  0.47257460    -0.78300
C418        C  0.03981536  0.58432550  0.43355678     0.83800
C419        C  0.41587141  0.96229593  0.43428515     0.84200
O420        O  0.44583001  0.97582626  0.41750435    -0.80800
C421        C  0.12343642  0.66429638  0.16791895    -0.17600
C422        C  0.13798603  0.69522180  0.19021382    -0.19800
C423        C  0.12624785  0.71833177  0.18460838     0.20900
C424        C  0.09963135  0.71030195  0.15620657    -0.02700
C425        C  0.08470985  0.67893399  0.13401560    -0.05800
C426        C  0.09675299  0.65587365  0.13984084     0.21200
C427        C  0.05768712  0.67061608  0.10612496     0.19300
C428        C  0.04626604  0.69396111  0.10013612    -0.17200
C429        C  0.06125585  0.72519677  0.12189123    -0.19500
C430        C  0.08778314  0.73350717  0.15013212     0.20800
C431        C  0.10234195  0.76433794  0.17281475    -0.32500
C432        C  0.12801306  0.77179789  0.20191095     0.01500
C433        C  0.14036505  0.74913424  0.20719166    -0.23800
C434        C  0.08186525  0.62479408  0.11753987    -0.28400
C435        C  0.05459175  0.61613386  0.09013679     0.07200
C436        C  0.04257577  0.63911997  0.08469771    -0.27100
H437        H  0.13294606  0.64686972  0.17278080     0.11900
H438        H  0.15838781  0.70103751  0.21191702     0.13000
H439        H  0.02566922  0.68802099  0.07866647     0.12100
H440        H  0.05190700  0.74273668  0.11685003     0.11300
H441        H  0.09303523  0.78204869  0.16878633     0.16700
H442        H  0.16059446  0.75533895  0.22933106     0.12600
H443        H  0.09116490  0.60711664  0.12186843     0.15500
H444        H  0.02184233  0.63275642  0.06322480     0.15300
C445        C  0.33639746  0.97717245  0.15412021    -0.17600
C446        C  0.30599832  0.96243929  0.17761716    -0.19800
C447        C  0.28168631  0.92630357  0.17668912     0.20900
C448        C  0.28794091  0.90478161  0.15164233    -0.02700
C449        C  0.31893818  0.91955844  0.12856344    -0.05800
C450        C  0.34321727  0.95595345  0.12971780     0.21200
C451        C  0.32578070  0.89786999  0.10468162     0.19300
C452        C  0.30123502  0.86177121  0.10333845    -0.17200
C453        C  0.27020341  0.84720452  0.12561938    -0.19500
C454        C  0.26343142  0.86843369  0.15000736     0.20800
C455        C  0.23292718  0.85389854  0.17337996    -0.32500
C456        C  0.22737112  0.87503899  0.19940918     0.01500
C457        C  0.25148563  0.91119996  0.20073125    -0.23800
C458        C  0.37406025  0.97043075  0.10681986    -0.28400
C459        C  0.38142153  0.94889359  0.08364586     0.07200
C460        C  0.35713151  0.91262325  0.08275907    -0.27100
H461        H  0.35587411  0.50293635  0.15746386     0.11900
H462        H  0.30154131  0.97930889  0.19659814     0.13000
H463        H  0.30605986  0.84478177  0.08507352     0.12100
H464        H  0.25168304  0.81925903  0.12415283     0.11300
H465        H  0.21411457  0.82595754  0.17261362     0.16700
H466        H  0.24677537  0.92735658  0.22071148     0.12600
H467        H  0.39457705  0.49619403  0.11133050     0.15500
H468        H  0.36249358  0.89589935  0.06468367     0.15300
C469        C  0.02372747  0.87599085  0.16317588    -0.17600
C470        C  0.03860110  0.86063548  0.18544749    -0.19800
C471        C  0.07479186  0.87432389  0.18378597     0.20900
C472        C  0.09632314  0.90393268  0.15966261    -0.02700
C473        C  0.08138616  0.91971931  0.13768723    -0.05800
C474        C  0.04486582  0.90546339  0.13919690     0.21200
C475        C  0.10294520  0.94957802  0.11400853     0.19300
C476        C  0.13918667  0.96335516  0.11244577    -0.17200
C477        C  0.15395848  0.94744645  0.13385432    -0.19500
C478        C  0.13275019  0.91769776  0.15740021     0.20800
C479        C  0.14728838  0.90156282  0.17894125    -0.32500
C480        C  0.12600929  0.87267171  0.20357490     0.01500
C481        C  0.08988283  0.85903590  0.20590636    -0.23800
C482        C  0.03006889  0.92072042  0.11642994    -0.28400
C483        C  0.05134682  0.95032365  0.09257444     0.07200
C484        C  0.08782533  0.96486739  0.09191651    -0.27100
H485        H  0.49632838  0.86634468  0.16719983     0.11900
H486        H  0.02176760  0.83793328  0.20382157     0.13000
H487        H  0.15607466  0.98628341  0.09440969     0.12100
H488        H  0.18197355  0.95841864  0.13201851     0.11300
H489        H  0.17525598  0.91200382  0.17760901     0.16700
H490        H  0.07369779  0.83661470  0.22500677     0.12600
H491        H  0.00197256  0.90953708  0.11727858     0.15500
H492        H  0.10439353  0.98759735  0.07341507     0.15300
C493        C  0.03694885  0.64779617  0.31371482    -0.17600
C494        C  0.05012158  0.67885387  0.29192139    -0.19800
C495        C  0.08018341  0.70967968  0.30517713     0.20900
C496        C  0.09711316  0.70931880  0.34075364    -0.02700
C497        C  0.08326661  0.67822095  0.36334855    -0.05800
C498        C  0.05321491  0.64723717  0.34954620     0.21200
C499        C  0.09943985  0.67817345  0.39975008     0.19300
C500        C  0.12964411  0.70898489  0.41281653    -0.17200
C501        C  0.14390573  0.73957213  0.38983584    -0.19500
C502        C  0.12783464  0.74001406  0.35377841     0.20800
C503        C  0.14216924  0.77043517  0.33024992    -0.32500
C504        C  0.12555391  0.77093765  0.29455318     0.01500
C505        C  0.09374501  0.74076699  0.28326441    -0.23800
C506        C  0.03976340  0.61635893  0.37202640    -0.28400
C507        C  0.05528393  0.61634347  0.40877601     0.07200
C508        C  0.08505346  0.64736083  0.42248811    -0.27100
H509        H  0.01384963  0.62427073  0.30272042     0.11900
H510        H  0.03700581  0.67868556  0.26444989     0.13000
H511        H  0.14239011  0.70936122  0.44068425     0.12100
H512        H  0.16744118  0.76292841  0.40034929     0.11300
H513        H  0.16662634  0.79346494  0.33939772     0.16700
H514        H  0.07965799  0.74123528  0.25705857     0.12600
H515        H  0.01662059  0.59257886  0.36153616     0.15500
H516        H  0.09721505  0.64740119  0.45071324     0.15300
C517        C  0.29512959  0.93463177  0.41297177    -0.17600
C518        C  0.26485254  0.92058927  0.38942006    -0.19800
C519        C  0.26299169  0.90481164  0.35234917     0.20900
C520        C  0.29195598  0.90326986  0.33876935    -0.02700
C521        C  0.32281845  0.91817668  0.36207316    -0.05800
C522        C  0.32422846  0.93361244  0.39952774     0.21200
C523        C  0.35215720  0.91749911  0.34799160     0.19300
C524        C  0.35013192  0.90142653  0.31104067    -0.17200
C525        C  0.31918549  0.88581744  0.28845090    -0.19500
C526        C  0.29000941  0.88664853  0.30206665     0.20800
C527        C  0.25891253  0.87110595  0.27967856    -0.32500
C528        C  0.23046019  0.87393445  0.29204363     0.01500
C529        C  0.23272626  0.89068917  0.32858663    -0.23800
C530        C  0.35466443  0.94768410  0.42294958    -0.28400
C531        C  0.38409206  0.94737962  0.40902818     0.07200
C532        C  0.38283364  0.93262202  0.37129805    -0.27100
H533        H  0.29584870  0.94644853  0.44164358     0.11900
H534        H  0.24279651  0.92187768  0.40032360     0.13000
H535        H  0.37237326  0.90063409  0.29979503     0.12100
H536        H  0.31815378  0.87332398  0.26016980     0.11300
H537        H  0.25694423  0.85662534  0.25281314     0.16700
H538        H  0.21103574  0.89304434  0.33846299     0.12600
H539        H  0.35564680  0.95933826  0.45185790     0.15500
H540        H  0.40541706  0.93217269  0.36057082     0.15300
C541        C  0.12461002  0.95562602  0.29699998    -0.17600
C542        C  0.10863091  0.96995377  0.31917031    -0.19800
C543        C  0.08819050  0.95246109  0.35308733     0.20900
C544        C  0.08400990  0.92029874  0.36490081    -0.02700
C545        C  0.09959401  0.90553896  0.34209805    -0.05800
C546        C  0.12003165  0.92334668  0.30806278     0.21200
C547        C  0.09460391  0.87291742  0.35327953     0.19300
C548        C  0.07469833  0.85572139  0.38759298    -0.17200
C549        C  0.05976068  0.87062708  0.41059287    -0.19500
C550        C  0.06413695  0.90278300  0.39940124     0.20800
C551        C  0.04890126  0.91765838  0.42205245    -0.32500
C552        C  0.05242477  0.94933887  0.41011324     0.01500
C553        C  0.07190642  0.96652849  0.37545118    -0.23800
C554        C  0.13522854  0.90839970  0.28545722    -0.28400
C555        C  0.12899094  0.87513373  0.29525810     0.07200
C556        C  0.10919680  0.85786340  0.32966102    -0.27100
H557        H  0.14021203  0.96959448  0.27088954     0.11900
H558        H  0.11227801  0.99473569  0.30979419     0.13000
H559        H  0.07065518  0.83070773  0.39663762     0.12100
H560        H  0.04453993  0.85685742  0.43699349     0.11300
H561        H  0.03377593  0.90429256  0.44869501     0.16700
H562        H  0.07497833  0.99116704  0.36643625     0.12600
H563        H  0.15178094  0.92263847  0.26008294     0.15500
H564        H  0.10453787  0.83236208  0.33755034     0.15300
C565        C  0.39739356  0.54198927  0.81388745    -0.17600
C566        C  0.38158557  0.55625991  0.79117891    -0.19800
C567        C  0.38286614  0.58659325  0.80421366     0.20900
C568        C  0.40035266  0.60271091  0.84041858    -0.02700
C569        C  0.41576799  0.58801775  0.86368556    -0.05800
C570        C  0.41439264  0.55757283  0.85025737     0.21200
C571        C  0.43224952  0.60362928  0.90055227     0.19300
C572        C  0.43389605  0.63416613  0.91334134    -0.17200
C573        C  0.41904698  0.64896393  0.89000143    -0.19500
C574        C  0.40202704  0.63325262  0.85369202     0.20800
C575        C  0.38658392  0.64762308  0.83057561    -0.32500
C576        C  0.36931099  0.63221185  0.79427434     0.01500
C577        C  0.36685716  0.60101475  0.78184845    -0.23800
C578        C  0.42973594  0.54310873  0.87363771    -0.28400
C579        C  0.44550881  0.55813962  0.91077772     0.07200
C580        C  0.44660108  0.58832783  0.92408544    -0.27100
H581        H  0.39606234  0.51857666  0.80316702     0.11900
H582        H  0.36841890  0.54360681  0.76336121     0.13000
H583        H  0.44660702  0.64657285  0.94144268     0.12100
H584        H  0.42062761  0.67255291  0.90051335     0.11300
H585        H  0.38821495  0.67089054  0.84114324     0.16700
H586        H  0.35227444  0.58769161  0.75499829     0.12600
H587        H  0.42868804  0.51968484  0.86343632     0.15500
H588        H  0.45901850  0.60013225  0.95255160     0.15300
C589        C  0.41886572  0.77195605  0.89075494    -0.17600
C590        C  0.43310085  0.80219708  0.91424994    -0.19800
C591        C  0.42812374  0.82944574  0.90340781     0.20900
C592        C  0.40827730  0.82602804  0.86879350    -0.02700
C593        C  0.39331334  0.79519492  0.84557321    -0.05800
C594        C  0.39900337  0.76829891  0.85637375     0.21200
C595        C  0.37290242  0.79140471  0.81140503     0.19300
C596        C  0.36779904  0.81858419  0.80063987    -0.17200
C597        C  0.38322858  0.84947425  0.82317216    -0.19500
C598        C  0.40360821  0.85350346  0.85718820     0.20800
C599        C  0.41950852  0.88452759  0.87971684    -0.32500
C600        C  0.43905896  0.88795264  0.91436920     0.01500
C601        C  0.44288084  0.86016206  0.92634056    -0.23800
C602        C  0.38520382  0.73838506  0.83230409    -0.28400
C603        C  0.36529038  0.73441067  0.79788354     0.07200
C604        C  0.35832979  0.76069207  0.78837849    -0.27100
H605        H  0.42340793  0.75143561  0.89945855     0.11900
H606        H  0.44831019  0.80442231  0.94067230     0.13000
H607        H  0.35225073  0.81614097  0.77446563     0.12100
H608        H  0.37923459  0.87024211  0.81396922     0.11300
H609        H  0.41624168  0.90582313  0.87071374     0.16700
H610        H  0.45807295  0.86283254  0.95298180     0.12600
H611        H  0.39086711  0.71875804  0.84001760     0.15500
H612        H  0.34193732  0.75748096  0.76277666     0.15300
C613        C  0.17355488  0.55251755  0.79556407    -0.17600
C614        C  0.14255189  0.53889937  0.81777355    -0.19800
C615        C  0.14160715  0.55582018  0.85279033     0.20900
C616        C  0.17213651  0.58698266  0.86530200    -0.02700
C617        C  0.20318633  0.60114155  0.84237088    -0.05800
C618        C  0.20396600  0.58359188  0.80763428     0.21200
C619        C  0.23347884  0.63271719  0.85434895     0.19300
C620        C  0.23259991  0.64958686  0.88942694    -0.17200
C621        C  0.20205910  0.63517294  0.91263275    -0.19500
C622        C  0.17172474  0.60391648  0.90083163     0.20800
C623        C  0.14105346  0.58922848  0.92401983    -0.32500
C624        C  0.11047743  0.55832561  0.91163388     0.01500
C625        C  0.11081658  0.54197805  0.87572869    -0.23800
C626        C  0.23511100  0.59742393  0.78554545    -0.28400
C627        C  0.26500027  0.62967576  0.79618397     0.07200
C628        C  0.26401434  0.64697708  0.83091246    -0.27100
H629        H  0.17368973  0.53886300  0.76877451     0.11900
H630        H  0.11938419  0.51495588  0.80774841     0.13000
H631        H  0.25561688  0.67383671  0.89906157     0.12100
H632        H  0.20213198  0.64854708  0.93977246     0.11300
H633        H  0.14083791  0.60204150  0.95154935     0.16700
H634        H  0.08738333  0.51799368  0.86624347     0.12600
H635        H  0.23600413  0.58287075  0.76020834     0.15500
H636        H  0.28684738  0.67183857  0.83940877     0.15300
C637        C  0.36085740  0.55541997  0.60025011    -0.17600
C638        C  0.34608408  0.57102072  0.62210132    -0.19800
C639        C  0.36648573  0.59791604  0.64948092     0.20900
C640        C  0.40230759  0.60977001  0.65440796    -0.02700
C641        C  0.41735858  0.59440507  0.63185062    -0.05800
C642        C  0.39634565  0.56676355  0.60511460     0.21200
C643        C  0.45324356  0.60636960  0.63640326     0.19300
C644        C  0.47370498  0.63357820  0.66352936    -0.17200
C645        C  0.45860429  0.64840176  0.68647663    -0.19500
C646        C  0.42290256  0.63654903  0.68230541     0.20800
C647        C  0.40718051  0.65040961  0.70601864    -0.32500
C648        C  0.37129006  0.63787966  0.70181889     0.01500
C649        C  0.35143781  0.61253980  0.67272728    -0.23800
C650        C  0.41108775  0.55078447  0.58381514    -0.28400
C651        C  0.44676408  0.56252764  0.58807864     0.07200
C652        C  0.46785912  0.59065024  0.61402272    -0.27100
H653        H  0.34447491  0.53435389  0.57966326     0.11900
H654        H  0.31854916  0.56167730  0.61805083     0.13000
H655        H  0.50129330  0.64308971  0.66737776     0.12100
H656        H  0.47479936  0.66898996  0.70766285     0.11300
H657        H  0.42254532  0.67042946  0.72817125     0.16700
H658        H  0.32390910  0.60322047  0.66933488     0.12600
H659        H  0.39486952  0.52949181  0.56336764     0.15500
H660        H  0.49543583  0.59982741  0.61732562     0.15300
C661        C  0.35532201  0.80150113  0.59777452    -0.17600
C662        C  0.34139625  0.77093171  0.62072681    -0.19800
C663        C  0.36155808  0.76789468  0.65087222     0.20900
C664        C  0.39625442  0.79574416  0.65768442    -0.02700
C665        C  0.41043267  0.82642059  0.63421825    -0.05800
C666        C  0.38972457  0.82944991  0.60440319     0.21200
C667        C  0.44526904  0.85407713  0.64069293     0.19300
C668        C  0.46548156  0.85097386  0.67073617    -0.17200
C669        C  0.45128849  0.82074540  0.69432323    -0.19500
C670        C  0.41675261  0.79300687  0.68802203     0.20800
C671        C  0.40230216  0.76263713  0.71157030    -0.32500
C672        C  0.36762153  0.73510151  0.70523648     0.01500
C673        C  0.34756389  0.73764082  0.67454146    -0.23800
C674        C  0.40379558  0.86036375  0.58178929    -0.28400
C675        C  0.43857962  0.88784448  0.58788180     0.07200
C676        C  0.45924178  0.88438785  0.61710313    -0.27100
H677        H  0.33915147  0.80330336  0.57485737     0.11900
H678        H  0.31474566  0.74974407  0.61509515     0.13000
H679        H  0.49224056  0.87201918  0.67612845     0.12100
H680        H  0.46733961  0.81905359  0.71749458     0.11300
H681        H  0.41791312  0.76035052  0.73487345     0.16700
H682        H  0.32080907  0.71630066  0.66969464     0.12600
H683        H  0.38796151  0.86281870  0.55892795     0.15500
H684        H  0.48606174  0.90559869  0.62190808     0.15300
C685        C  0.17982033  0.53941738  0.61758649    -0.17600
C686        C  0.21062337  0.55418992  0.64030976    -0.19800
C687        C  0.22332108  0.58621722  0.66003632     0.20900
C688        C  0.20487005  0.60363571  0.65681829    -0.02700
C689        C  0.17392793  0.58886055  0.63354824    -0.05800
C690        C  0.16128126  0.55650694  0.61402596     0.21200
C691        C  0.15562896  0.60638247  0.62993538     0.19300
C692        C  0.16833922  0.63842478  0.64976520    -0.17200
C693        C  0.19879154  0.65287884  0.67322100    -0.19500
C694        C  0.21722234  0.63568234  0.67701469     0.20800
C695        C  0.24763832  0.64976787  0.70075432    -0.32500
C696        C  0.26590814  0.63236256  0.70400469     0.01500
C697        C  0.25394977  0.60094195  0.68323594    -0.23800
C698        C  0.13033304  0.54175908  0.59130047    -0.28400
C699        C  0.11194380  0.55906125  0.58735183     0.07200
C700        C  0.12491729  0.59150295  0.60667759    -0.27100
H701        H  0.17049548  0.51459390  0.60275851     0.11900
H702        H  0.22446147  0.54047794  0.64258830     0.13000
H703        H  0.15461293  0.65223704  0.64730436     0.12100
H704        H  0.20792521  0.67751768  0.68840973     0.11300
H705        H  0.25714542  0.67415283  0.71674052     0.16700
H706        H  0.26776799  0.58731177  0.68645547     0.12600
H707        H  0.12075183  0.51691841  0.57636440     0.15500
H708        H  0.11095322  0.60507245  0.60394349     0.15300
C709        C  0.83304905  0.16713463  0.70957069     0.45700
H710        H  0.83239268  0.16696349  0.67612156    -0.03300
C711        C  0.83456761  0.16744561  0.78782706     0.45700
H712        H  0.83464128  0.16721521  0.82119112    -0.03300
C713        C  0.85097257  0.20394345  0.72766490    -0.17000
C714        C  0.79665908  0.14690427  0.72895456    -0.16800
C715        C  0.85308963  0.15116033  0.72715647    -0.17200
C716        C  0.85161865  0.20443098  0.76916730    -0.17200
C717        C  0.79720007  0.14698372  0.77031656    -0.16700
C718        C  0.85346476  0.15042849  0.76863159    -0.17000
C719        C  0.66095213  0.33882572  0.28965228     0.45700
H720        H  0.66130730  0.33960787  0.32303717    -0.03300
C721        C  0.66043726  0.33730379  0.21131919     0.45700
H722        H  0.66029724  0.33671643  0.17785796    -0.03300
C723        C  0.69778581  0.35725125  0.27065322    -0.17000
C724        C  0.64192490  0.30154951  0.27217010    -0.16800
C725        C  0.64266859  0.35632355  0.27049994    -0.17200
C726        C  0.69717622  0.35648419  0.22930363    -0.17200
C727        C  0.64206882  0.30107464  0.23071915    -0.16700
C728        C  0.64252972  0.35528904  0.22910262    -0.17000
O729        O  0.93163198  0.49443678  0.05497104    -0.78300
C730        C  0.53781614  0.08426838  0.06456043     0.82800
O731        O  0.97534963  0.02736298  0.91394927    -0.78200
O732        O  0.58141806  0.04765293  0.97424039    -0.80900
O733        O  0.50505770  0.44570005  0.05832570    -0.80700
O734        O  0.92833019  0.44327236  0.05539150    -0.79300
Zn735      Zn  0.97435826  0.02835778  0.01684716     1.55700
O736        O  0.55713203  0.49539963  0.05477075    -0.80700
Cd737      Cd  0.97227023  0.45400913  0.02293049     1.59700
Cd738      Cd  0.99774099  0.00133722  0.93900791     1.59600
O739        O  0.95564118  0.41846803  0.97587910    -0.80700
O740        O  0.99684076  0.00364872  0.99924576    -1.91200
Cd741      Cd  0.54587764  0.02923484  0.02082306     1.59900
O742        O  0.96963079  0.45108757  0.92044298    -0.80600
O743        O  0.55627760  0.07121452  0.05624086    -0.79300
C744        C  0.96233344  0.04362198  0.93046813     0.83200
C745        C  0.91628791  0.46234961  0.06533420     0.82900
O746        O  0.50651602  0.07062917  0.05169485    -0.78200
C747        C  0.53757911  0.46399106  0.06692288     0.83700
O748        O  0.96085892  0.04571907  0.96859384    -0.78300
C749        C  0.95576414  0.42142349  0.93769150     0.83800
C750        C  0.57858240  0.04215662  0.93644667     0.84200
O751        O  0.54881001  0.02404692  0.91918646    -0.80800
O752        O  0.56243932  0.00804053  0.55271733    -0.78300
C753        C  0.95479347  0.42251909  0.56279929     0.82800
O754        O  0.52526970  0.48141527  0.41759721    -0.79400
O755        O  0.91490569  0.46485794  0.47008488    -0.80900
O756        O  0.99159262  0.06035686  0.55764362    -0.80700
O757        O  0.56455886  0.05841834  0.55667439    -0.79300
Zn758      Zn  0.52062547  0.47926597  0.51979910     1.55700
O759        O  0.93938575  0.01068700  0.55569029    -0.80700
Cd760      Cd  0.52272255  0.04971609  0.52209376     1.59700
Cd761      Cd  0.99705124  0.00322440  0.44084151     1.59600
O762        O  0.54220500  0.08607402  0.47599490    -0.80700
O763        O  0.99684858  0.00146916  0.50114037    -1.91200
Cd764      Cd  0.94894741  0.47897272  0.51793640     1.59900
O765        O  0.52065808  0.05397678  0.42033711    -0.80600
O766        O  0.93574296  0.43398679  0.55039702    -0.79300
C767        C  0.53650456  0.46399222  0.43526301     0.83200
C768        C  0.57695854  0.03943379  0.56530537     0.82900
O769        O  0.98732352  0.43796449  0.55420605    -0.78200
C770        C  0.95924888  0.04234712  0.56703250     0.83700
O771        O  0.53507212  0.46029870  0.47342138    -0.78300
C772        C  0.53812053  0.08351188  0.43793579     0.83800
C773        C  0.91839631  0.46501478  0.43204278     0.84200
O774        O  0.94821219  0.47726481  0.41534618    -0.80800
C775        C  0.62077350  0.16121695  0.16935631    -0.17600
C776        C  0.63544496  0.19159965  0.19268787    -0.19800
C777        C  0.62464908  0.21550271  0.18746232     0.20900
C778        C  0.59885834  0.20879519  0.15839283    -0.02700
C779        C  0.58381287  0.17799268  0.13516949    -0.05800
C780        C  0.59489911  0.15414186  0.14062543     0.21200
C781        C  0.55760060  0.17102588  0.10661173     0.19300
C782        C  0.54714331  0.19516233  0.10100825    -0.17200
C783        C  0.56227735  0.22584713  0.12376716    -0.19500
C784        C  0.58797536  0.23278911  0.15262119     0.20800
C785        C  0.60276009  0.26314215  0.17605021    -0.32500
C786        C  0.62775283  0.26944912  0.20555271     0.01500
C787        C  0.63899408  0.24589094  0.21088490    -0.23800
C788        C  0.57984430  0.12361615  0.11732057    -0.28400
C789        C  0.55334565  0.11628634  0.08925834     0.07200
C790        C  0.54229031  0.14004997  0.08416390    -0.27100
H791        H  0.62954297  0.14315212  0.17392440     0.11900
H792        H  0.65521611  0.19638855  0.21485129     0.13000
H793        H  0.52719160  0.19026974  0.07905828     0.12100
H794        H  0.55370880  0.24405126  0.11898999     0.11300
H795        H  0.59432324  0.28155930  0.17204308     0.16700
H796        H  0.65872588  0.25123166  0.23337909     0.12600
H797        H  0.58840188  0.10531133  0.12137695     0.15500
H798        H  0.52218206  0.13470081  0.06219723     0.15300
C799        C  0.83608919  0.47485410  0.15589862    -0.17600
C800        C  0.80548703  0.46006341  0.17899631    -0.19800
C801        C  0.78220655  0.42373473  0.17968209     0.20900
C802        C  0.78968033  0.40203528  0.15666940    -0.02700
C803        C  0.82086589  0.41692723  0.13392339    -0.05800
C804        C  0.84411855  0.45352769  0.13347914     0.21200
C805        C  0.82884275  0.39520246  0.11182430     0.19300
C806        C  0.80527585  0.35886353  0.11205862    -0.17200
C807        C  0.77408601  0.34412801  0.13410376    -0.19500
C808        C  0.76612584  0.36545942  0.15659865     0.20800
C809        C  0.73528257  0.35090583  0.17942462    -0.32500
C810        C  0.72847383  0.37237914  0.20330118     0.01500
C811        C  0.75175133  0.40868259  0.20321798    -0.23800
C812        C  0.87507032  0.46817362  0.11079606    -0.28400
C813        C  0.88348547  0.44670504  0.08912224     0.07200
C814        C  0.86023758  0.41019848  0.08990954    -0.27100
H815        H  0.85607115  0.00552229  0.15604082     0.11900
H816        H  0.80003800  0.47705156  0.19636461     0.13000
H817        H  0.81096047  0.34182654  0.09515684     0.12100
H818        H  0.75631943  0.31601506  0.13382291     0.11300
H819        H  0.71711028  0.32282911  0.17979049     0.16700
H820        H  0.74607987  0.42504726  0.22156622     0.12600
H821        H  0.89359727  0.99861762  0.10784901     0.15500
H822        H  0.86634601  0.39345669  0.07300956     0.15300
C823        C  0.52519453  0.37517543  0.16399550    -0.17600
C824        C  0.53977114  0.35955836  0.18630409    -0.19800
C825        C  0.57557250  0.37174259  0.18305263     0.20900
C826        C  0.59696264  0.39985966  0.15694738    -0.02700
C827        C  0.58235332  0.41592764  0.13488904    -0.05800
C828        C  0.54626599  0.40340786  0.13835762     0.21200
C829        C  0.60386360  0.44458348  0.10954879     0.19300
C830        C  0.63963469  0.45655145  0.10599634    -0.17200
C831        C  0.65406130  0.44035269  0.12752326    -0.19500
C832        C  0.63299628  0.41213502  0.15319346     0.20800
C833        C  0.64738856  0.39638775  0.17580592    -0.32500
C834        C  0.62637900  0.36934898  0.20282664     0.01500
C835        C  0.59048864  0.35669877  0.20592680    -0.23800
C836        C  0.53186238  0.41932505  0.11613996    -0.28400
C837        C  0.55315717  0.44800604  0.09104672     0.07200
C838        C  0.58918469  0.46066456  0.08811193    -0.27100
H839        H  0.99775505  0.36488967  0.16699690     0.11900
H840        H  0.52305594  0.33800058  0.20619855     0.13000
H841        H  0.65646032  0.47845378  0.08656752     0.12100
H842        H  0.68176397  0.45010423  0.12438906     0.11300
H843        H  0.67513941  0.40594932  0.17362820     0.16700
H844        H  0.57443474  0.33554144  0.22663340     0.12600
H845        H  0.50409542  0.40955937  0.11862078     0.15500
H846        H  0.60566015  0.48257356  0.06848995     0.15300
C847        C  0.53487289  0.14771294  0.31935911    -0.17600
C848        C  0.54845200  0.17863335  0.29723479    -0.19800
C849        C  0.57931097  0.20906062  0.30967366     0.20900
C850        C  0.59671601  0.20841243  0.34470309    -0.02700
C851        C  0.58257620  0.17741451  0.36755242    -0.05800
C852        C  0.55161442  0.14688936  0.35463834     0.21200
C853        C  0.59932122  0.17701122  0.40333501     0.19300
C854        C  0.63042694  0.20739166  0.41545972    -0.17200
C855        C  0.64485587  0.23792326  0.39231193    -0.19500
C856        C  0.62816494  0.23873094  0.35694916     0.20800
C857        C  0.64255113  0.26912755  0.33333818    -0.32500
C858        C  0.62550447  0.26980641  0.29813568     0.01500
C859        C  0.59319439  0.24002204  0.28746442    -0.23800
C860        C  0.53774250  0.11615905  0.37739492    -0.28400
C861        C  0.55381877  0.11574301  0.41350949     0.07200
C862        C  0.58457013  0.14628224  0.42637552    -0.27100
H863        H  0.51109694  0.12450005  0.30905054     0.11900
H864        H  0.53496378  0.17868091  0.27019490     0.13000
H865        H  0.64367888  0.20750266  0.44278055     0.12100
H866        H  0.66900770  0.26095906  0.40216247     0.11300
H867        H  0.66738725  0.29198230  0.34191000     0.16700
H868        H  0.57899876  0.24072040  0.26147934     0.12600
H869        H  0.51390836  0.09274683  0.36751884     0.15500
H870        H  0.59720620  0.14598346  0.45406656     0.15300
C871        C  0.80068586  0.44448030  0.40768628    -0.17600
C872        C  0.76963133  0.42912851  0.38536279    -0.19800
C873        C  0.76543697  0.40875114  0.35141911     0.20900
C874        C  0.79295428  0.40406238  0.33963525    -0.02700
C875        C  0.82451416  0.42006276  0.36170427    -0.05800
C876        C  0.82818457  0.44001408  0.39616129     0.21200
C877        C  0.85222822  0.41580792  0.34952195     0.19300
C878        C  0.84798819  0.39535097  0.31562911    -0.17200
C879        C  0.81643729  0.37892700  0.29422101    -0.19500
C880        C  0.78883685  0.38313771  0.30601688     0.20800
C881        C  0.75722326  0.36684825  0.28470922    -0.32500
C882        C  0.73028392  0.37263465  0.29512847     0.01500
C883        C  0.73434263  0.39317148  0.32889708    -0.23800
C884        C  0.85911648  0.45478252  0.41876472    -0.28400
C885        C  0.88672788  0.45054906  0.40688159     0.07200
C886        C  0.88343084  0.43160431  0.37184885    -0.27100
H887        H  0.80318932  0.45983554  0.43400983     0.11900
H888        H  0.74880051  0.43301234  0.39480012     0.13000
H889        H  0.86894894  0.39176561  0.30591661     0.12100
H890        H  0.81367674  0.36306472  0.26829674     0.11300
H891        H  0.75364739  0.34965159  0.25994996     0.16700
H892        H  0.71352887  0.39746315  0.33723235     0.12600
H893        H  0.86181002  0.46970276  0.44560762     0.15500
H894        H  0.90466943  0.42818604  0.36281025     0.15300
C895        C  0.61889456  0.45088010  0.29394783    -0.17600
C896        C  0.60329900  0.46541342  0.31642396    -0.19800
C897        C  0.58466518  0.44900229  0.35171978     0.20900
C898        C  0.58143290  0.41744800  0.36431262    -0.02700
C899        C  0.59662442  0.40243661  0.34119398    -0.05800
C900        C  0.61575223  0.41946358  0.30611894     0.21200
C901        C  0.59293244  0.37058921  0.35336487     0.19300
C902        C  0.57426195  0.35416691  0.38865563    -0.17200
C903        C  0.55971913  0.36934601  0.41194925    -0.19500
C904        C  0.56321701  0.40100045  0.40009980     0.20800
C905        C  0.54891041  0.41653797  0.42340097    -0.32500
C906        C  0.55178021  0.44781189  0.41080979     0.01500
C907        C  0.56941168  0.46370281  0.37475392    -0.23800
C908        C  0.63152919  0.40488356  0.28390298    -0.28400
C909        C  0.62713717  0.37260573  0.29508225     0.07200
C910        C  0.60795503  0.35575170  0.33004316    -0.27100
H911        H  0.63333397  0.46416515  0.26694220     0.11900
H912        H  0.60604276  0.48965248  0.30635465     0.13000
H913        H  0.57113012  0.32968981  0.39842196     0.12100
H914        H  0.54568831  0.35628972  0.43923841     0.11300
H915        H  0.53509055  0.40405263  0.45102711     0.16700
H916        H  0.57188492  0.48793325  0.36507578     0.12600
H917        H  0.64739949  0.41884765  0.25799168     0.15500
H918        H  0.60443667  0.33089825  0.33889846     0.15300
C919        C  0.90186358  0.04655427  0.80735357    -0.17600
C920        C  0.88481692  0.06019506  0.78592094    -0.19800
C921        C  0.88401929  0.08894005  0.80093496     0.20900
C922        C  0.90067568  0.10416724  0.83773681    -0.02700
C923        C  0.91714825  0.08993462  0.85982302    -0.05800
C924        C  0.91784526  0.06103601  0.84450165     0.21200
C925        C  0.93254173  0.10439494  0.89744117     0.19300
C926        C  0.93207988  0.13336069  0.91219667    -0.17200
C927        C  0.91635374  0.14785417  0.88992279    -0.19500
C928        C  0.90049214  0.13335616  0.85275664     0.20800
C929        C  0.88473433  0.14779395  0.83026189    -0.32500
C930        C  0.86861218  0.13341202  0.79310563     0.01500
C931        C  0.86697838  0.10280218  0.77974514    -0.23800
C932        C  0.93387808  0.04675437  0.86699585    -0.28400
C933        C  0.94819941  0.06036799  0.90511141     0.07200
C934        C  0.94766157  0.08933704  0.91994416    -0.27100
H935        H  0.90216005  0.02439207  0.79511438     0.11900
H936        H  0.87242976  0.04839125  0.75747258     0.13000
H937        H  0.94386575  0.14479885  0.94099463     0.12100
H938        H  0.91643074  0.17030368  0.90187338     0.11300
H939        H  0.88548231  0.17044568  0.84181899     0.16700
H940        H  0.85259180  0.08966468  0.75275677     0.12600
H941        H  0.93408548  0.02430081  0.85554166     0.15500
H942        H  0.95897826  0.10013000  0.94914631     0.15300
C943        C  0.91715334  0.27261235  0.88910160    -0.17600
C944        C  0.93129501  0.30263410  0.91293047    -0.19800
C945        C  0.92798442  0.33074751  0.90130382     0.20900
C946        C  0.91021730  0.32861122  0.86531242    -0.02700
C947        C  0.89528639  0.29796492  0.84170578    -0.05800
C948        C  0.89902226  0.27001296  0.85355835     0.21200
C949        C  0.87652430  0.29522615  0.80640647     0.19300
C950        C  0.87353024  0.32351977  0.79454350    -0.17200
C951        C  0.88901176  0.35424477  0.81746056    -0.19500
C952        C  0.90730105  0.35701320  0.85297667     0.20800
C953        C  0.92261992  0.38754418  0.87647570    -0.32500
C954        C  0.93982082  0.38951556  0.91272705     0.01500
C955        C  0.94217703  0.36094512  0.92503168    -0.23800
C956        C  0.88476955  0.23997321  0.82961078    -0.28400
C957        C  0.86600791  0.23674237  0.79438169     0.07200
C958        C  0.86115957  0.26427686  0.78364651    -0.27100
H959        H  0.92021750  0.25131416  0.89860568     0.11900
H960        H  0.94496372  0.30392204  0.94039024     0.13000
H961        H  0.85939954  0.32197100  0.76738677     0.12100
H962        H  0.88646770  0.37576177  0.80754553     0.11300
H963        H  0.92062493  0.40950997  0.86700734     0.16700
H964        H  0.95572403  0.36253295  0.95274026     0.12600
H965        H  0.88887693  0.21940454  0.83827711     0.15500
H966        H  0.84561490  0.26178645  0.75747886     0.15300
C967        C  0.67625708  0.04940839  0.79985425    -0.17600
C968        C  0.64525480  0.03539445  0.82214929    -0.19800
C969        C  0.64341690  0.05330028  0.85569556     0.20900
C970        C  0.67324428  0.08550780  0.86711381    -0.02700
C971        C  0.70427787  0.10001407  0.84407752    -0.05800
C972        C  0.70576143  0.08184070  0.81033883     0.21200
C973        C  0.73370705  0.13278762  0.85464508     0.19300
C974        C  0.73218143  0.15027310  0.88880272    -0.17200
C975        C  0.70167290  0.13557086  0.91211866    -0.19500
C976        C  0.67200070  0.10336589  0.90134389     0.20800
C977        C  0.64104879  0.08882254  0.92401383    -0.32500
C978        C  0.61098045  0.05717266  0.91224753     0.01500
C979        C  0.61231161  0.03960933  0.87798808    -0.23800
C980        C  0.73656624  0.09658472  0.78740470    -0.28400
C981        C  0.76537072  0.13008371  0.79639093     0.07200
C982        C  0.76391518  0.14772647  0.83053391    -0.27100
H983        H  0.67698622  0.03512844  0.77400767     0.11900
H984        H  0.62268990  0.01054726  0.81312433     0.13000
H985        H  0.75457405  0.17538320  0.89743984     0.12100
H986        H  0.70115213  0.14959851  0.93833680     0.11300
H987        H  0.64012431  0.10245916  0.95042772     0.16700
H988        H  0.58933456  0.01496214  0.86917148     0.12600
H989        H  0.73802572  0.08188634  0.76258125     0.15500
H990        H  0.78603983  0.17343743  0.83788404     0.15300
C991        C  0.85870624  0.05326426  0.60180979    -0.17600
C992        C  0.84425910  0.06955669  0.62294730    -0.19800
C993        C  0.86488405  0.09684347  0.64981423     0.20900
C994        C  0.90053186  0.10815451  0.65519909    -0.02700
C995        C  0.91520521  0.09193742  0.63354524    -0.05800
C996        C  0.89405244  0.06414978  0.60703032     0.21200
C997        C  0.95090952  0.10335066  0.63860485     0.19300
C998        C  0.97153301  0.13074424  0.66545834    -0.17200
C999        C  0.95684215  0.14651018  0.68737954    -0.19500
C1000       C  0.92137760  0.13536948  0.68252117     0.20800
C1001       C  0.90614325  0.15039404  0.70502163    -0.32500
C1002       C  0.87039187  0.13838114  0.70049889     0.01500
C1003       C  0.85025012  0.11245787  0.67205149    -0.23800
C1004       C  0.90855967  0.04768913  0.58616971    -0.28400
C1005       C  0.94412466  0.05903179  0.59075447     0.07200
C1006       C  0.96525666  0.08707407  0.61679843    -0.27100
H1007       H  0.84219222  0.03206067  0.58144006     0.11900
H1008       H  0.81683634  0.06056463  0.61859883     0.13000
H1009       H  0.99897345  0.13979902  0.66974181     0.12100
H1010       H  0.97318889  0.16733345  0.70824717     0.11300
H1011       H  0.92170137  0.17072241  0.72678794     0.16700
H1012       H  0.82280515  0.10343812  0.66846231     0.12600
H1013       H  0.89229905  0.02644235  0.56569291     0.15500
H1014       H  0.99273138  0.09593324  0.62041101     0.15300
C1015       C  0.85595224  0.30315815  0.59458613    -0.17600
C1016       C  0.84190723  0.27212402  0.61676303    -0.19800
C1017       C  0.86170728  0.26868785  0.64707789     0.20900
C1018       C  0.89623191  0.29659989  0.65466664    -0.02700
C1019       C  0.91045890  0.32783678  0.63215711    -0.05800
C1020       C  0.89010095  0.33126565  0.60222219     0.21200
C1021       C  0.94502118  0.35564895  0.63970890     0.19300
C1022       C  0.96495387  0.35209162  0.66972944    -0.17200
C1023       C  0.95079234  0.32125951  0.69218820    -0.19500
C1024       C  0.91648996  0.29342206  0.68493968     0.20800
C1025       C  0.90193334  0.26268217  0.70782040    -0.32500
C1026       C  0.86714376  0.23536866  0.70144167     0.01500
C1027       C  0.84744052  0.23813676  0.67041774    -0.23800
C1028       C  0.90434106  0.36265367  0.58037290    -0.28400
C1029       C  0.93897131  0.39026262  0.58738892     0.07200
C1030       C  0.95912315  0.38648495  0.61702998    -0.27100
H1031       H  0.84004371  0.30521399  0.57152396     0.11900
H1032       H  0.81541857  0.25090717  0.61044261     0.13000
H1033       H  0.99150574  0.37322524  0.67592703     0.12100
H1034       H  0.96663974  0.31923996  0.71536530     0.11300
H1035       H  0.91736759  0.26019267  0.73118722     0.16700
H1036       H  0.82067129  0.21692029  0.66532488     0.12600
H1037       H  0.88883707  0.36530060  0.55723436     0.15500
H1038       H  0.98578082  0.40773006  0.62261796     0.15300
C1039       C  0.67727539  0.03555308  0.62150174    -0.17600
C1040       C  0.70848292  0.05106138  0.64361502    -0.19800
C1041       C  0.72135652  0.08358540  0.66225311     0.20900
C1042       C  0.70260463  0.10066626  0.65866098    -0.02700
C1043       C  0.67130838  0.08517017  0.63603549    -0.05800
C1044       C  0.65853271  0.05241505  0.61743185     0.21200
C1045       C  0.65286187  0.10249725  0.63201710     0.19300
C1046       C  0.66560191  0.13491359  0.65088249    -0.17200
C1047       C  0.69638574  0.15008000  0.67367858    -0.19500
C1048       C  0.71506962  0.13319882  0.67775385     0.20800
C1049       C  0.74590489  0.14817226  0.70067670    -0.32500
C1050       C  0.76452403  0.13121521  0.70426128     0.01500
C1051       C  0.75246964  0.09922336  0.68469573    -0.23800
C1052       C  0.62739924  0.03723779  0.59490012    -0.28400
C1053       C  0.60910759  0.05461629  0.59029506     0.07200
C1054       C  0.62205946  0.08721488  0.60910448    -0.27100
H1055       H  0.66786749  0.01041318  0.60743764     0.11900
H1056       H  0.72252635  0.03757461  0.64621112     0.13000
H1057       H  0.65169757  0.14852449  0.64807307     0.12100
H1058       H  0.70561691  0.17505781  0.68807544     0.11300
H1059       H  0.75552067  0.17297710  0.71574571     0.16700
H1060       H  0.76663705  0.08596739  0.68820839     0.12600
H1061       H  0.61772843  0.01217343  0.58048144     0.15500
H1062       H  0.60814287  0.10080178  0.60597122     0.15300
C1063       C  0.83439467  0.66633969  0.71049903     0.45700
H1064       H  0.83409733  0.66681925  0.67704751    -0.03300
C1065       C  0.83523420  0.66532691  0.78876342     0.45700
H1066       H  0.83528404  0.66450551  0.82213606    -0.03300
C1067       C  0.85205175  0.70275678  0.72953856    -0.17000
C1068       C  0.79784399  0.64600528  0.72930581    -0.16800
C1069       C  0.85414247  0.64994666  0.72775755    -0.17200
C1070       C  0.85223756  0.70253854  0.77100845    -0.17200
C1071       C  0.79795946  0.64524541  0.77068859    -0.16700
C1072       C  0.85450030  0.64892576  0.76909488    -0.17000
C1073       C  0.66185704  0.84051733  0.28747107     0.45700
H1074       H  0.66233424  0.84076425  0.32082910    -0.03300
C1075       C  0.66019028  0.83998050  0.20918808     0.45700
H1076       H  0.65949277  0.83984018  0.17573381    -0.03300
C1077       C  0.69852466  0.85941794  0.26790324    -0.17000
C1078       C  0.64268935  0.80348407  0.26938216    -0.16800
C1079       C  0.64340205  0.85823911  0.26977240    -0.17200
C1080       C  0.69729710  0.85932948  0.22648712    -0.17200
C1081       C  0.64238033  0.80343723  0.22790679    -0.16700
C1082       C  0.64242516  0.85760028  0.22845057    -0.17000
O1083       O  0.93052115  0.99624947  0.04921491    -0.78300
C1084       C  0.53986678  0.58379611  0.06617607     0.82800
O1085       O  0.97424697  0.52703461  0.91907996    -0.78200
O1086       O  0.58262069  0.54703762  0.97443541    -0.80900
O1087       O  0.50328984  0.94749950  0.06022589    -0.80700
O1088       O  0.92669136  0.94482620  0.05120812    -0.79300
Zn1089     Zn  0.97450685  0.52698385  0.02132889     1.55700
O1090       O  0.55537172  0.99693112  0.05494860    -0.80700
Cd1091     Cd  0.97124743  0.95485911  0.02072686     1.59700
Cd1092     Cd  0.99767193  0.50170164  0.94222678     1.59600
O1093       O  0.95544564  0.91842956  0.97488814    -0.80700
O1094       O  0.99756628  0.50311153  0.00248135    -1.91200
Cd1095     Cd  0.54765473  0.52856783  0.02190667     1.59900
O1096       O  0.96939950  0.95002714  0.91858359    -0.80600
O1097       O  0.55842934  0.57081399  0.05774578    -0.79300
C1098       C  0.96062717  0.54248212  0.93606164     0.83200
C1099       C  0.91474900  0.96423545  0.05994888     0.82900
O1100       O  0.50835595  0.56975925  0.05388216    -0.78200
C1101       C  0.53588888  0.96601664  0.06849225     0.83700
O1102       O  0.95930888  0.54435662  0.97424030    -0.78300
C1103       C  0.95557525  0.92067130  0.93664536     0.83800
C1104       C  0.57925062  0.54285899  0.93641223     0.84200
O1105       O  0.54924890  0.52581869  0.91950958    -0.80800
O1106       O  0.56423025  0.51161053  0.55253909    -0.78300
C1107       C  0.95408650  0.92028424  0.56368448     0.82800
O1108       O  0.52355543  0.98085579  0.41688131    -0.79400
O1109       O  0.91295274  0.96180193  0.47309406    -0.80900
O1110       O  0.99296689  0.56242194  0.55352933    -0.80700
O1111       O  0.56785121  0.56284088  0.55363958    -0.79300
Zn1112     Zn  0.51900467  0.97663980  0.51931486     1.55700
O1113       O  0.94107699  0.51236296  0.55275874    -0.80700
Cd1114     Cd  0.52528906  0.55312594  0.51972110     1.59700
Cd1115     Cd  0.99876918  0.50374247  0.43837012     1.59600
O1116       O  0.54351224  0.58838009  0.47275517    -0.80700
O1117       O  0.99854102  0.50304630  0.49870079    -1.91200
Cd1118     Cd  0.94736641  0.97712749  0.52090088     1.59900
O1119       O  0.52353331  0.55556931  0.41745644    -0.80600
O1120       O  0.93511837  0.93247857  0.55349711    -0.79300
C1121       C  0.53536976  0.96374598  0.43405682     0.83200
C1122       C  0.57961640  0.54354313  0.56347980     0.82900
O1123       O  0.98617123  0.93518106  0.55335403    -0.78200
C1124       C  0.96077223  0.54418440  0.56348039     0.83700
O1125       O  0.53388548  0.95948212  0.47208141    -0.78300
C1126       C  0.54000924  0.58533793  0.43467584     0.83800
C1127       C  0.91636533  0.96236185  0.43497418     0.84200
O1128       O  0.94630105  0.97582305  0.41813761    -0.80800
C1129       C  0.62385584  0.66413942  0.16849123    -0.17600
C1130       C  0.63835755  0.69500814  0.19092887    -0.19800
C1131       C  0.62672745  0.71821267  0.18530961     0.20900
C1132       C  0.60016410  0.71024438  0.15685497    -0.02700
C1133       C  0.58526518  0.67891154  0.13454011    -0.05800
C1134       C  0.59729553  0.65582962  0.14026104     0.21200
C1135       C  0.55832189  0.67068758  0.10656736     0.19300
C1136       C  0.54688067  0.69403216  0.10071541    -0.17200
C1137       C  0.56185852  0.72522769  0.12255838    -0.19500
C1138       C  0.58839713  0.73351476  0.15077585     0.20800
C1139       C  0.60309321  0.76442817  0.17335464    -0.32500
C1140       C  0.62881768  0.77193240  0.20240638     0.01500
C1141       C  0.64095268  0.74908542  0.20784962    -0.23800
C1142       C  0.58253557  0.62486511  0.11768436    -0.28400
C1143       C  0.55536613  0.61631621  0.09012773     0.07200
C1144       C  0.54332377  0.63930557  0.08488793    -0.27100
H1145       H  0.63333896  0.64668790  0.17332703     0.11900
H1146       H  0.65869247  0.70074101  0.21269475     0.13000
H1147       H  0.52631479  0.68815202  0.07922581     0.12100
H1148       H  0.55253085  0.74278849  0.11754846     0.11300
H1149       H  0.59386814  0.78219758  0.16924931     0.16700
H1150       H  0.66115276  0.75524122  0.23001013     0.12600
H1151       H  0.59184914  0.60719042  0.12192031     0.15500
H1152       H  0.52265524  0.63304094  0.06335933     0.15300
C1153       C  0.83750278  0.97758933  0.15462572    -0.17600
C1154       C  0.80716535  0.96294639  0.17823843    -0.19800
C1155       C  0.78260893  0.92686645  0.17709462     0.20900
C1156       C  0.78858371  0.90531775  0.15174107    -0.02700
C1157       C  0.81950645  0.91999672  0.12853022    -0.05800
C1158       C  0.84401210  0.95633512  0.12987035     0.21200
C1159       C  0.82602654  0.89826261  0.10429023     0.19300
C1160       C  0.80126755  0.86222452  0.10277232    -0.17200
C1161       C  0.77032473  0.84776312  0.12519593    -0.19500
C1162       C  0.76384969  0.86903335  0.14989412     0.20800
C1163       C  0.73340298  0.85458184  0.17334251    -0.32500
C1164       C  0.72807847  0.87571596  0.19963929     0.01500
C1165       C  0.75242842  0.91183361  0.20119482    -0.23800
C1166       C  0.87474213  0.97071548  0.10676105    -0.28400
C1167       C  0.88175143  0.94912480  0.08317396     0.07200
C1168       C  0.85725696  0.91290744  0.08215327    -0.27100
H1169       H  0.85364825  0.50299373  0.15583868     0.11900
H1170       H  0.80293957  0.97984336  0.19746100     0.13000
H1171       H  0.80584716  0.84520188  0.08424058     0.12100
H1172       H  0.75162657  0.81986277  0.12357305     0.11300
H1173       H  0.71443441  0.82668124  0.17240366     0.16700
H1174       H  0.74791879  0.92800363  0.22139022     0.12600
H1175       H  0.89286608  0.49629467  0.11046979     0.15500
H1176       H  0.86235476  0.89614382  0.06378383     0.15300
C1177       C  0.52431162  0.87719460  0.16518272    -0.17600
C1178       C  0.53914339  0.86167501  0.18722147    -0.19800
C1179       C  0.57521811  0.87488663  0.18487225     0.20900
C1180       C  0.59668709  0.90422921  0.16035482    -0.02700
C1181       C  0.58180501  0.92019892  0.13862622    -0.05800
C1182       C  0.54538366  0.90637007  0.14076326     0.21200
C1183       C  0.60330703  0.94978351  0.11452785     0.19300
C1184       C  0.63944748  0.96313331  0.11235479    -0.17200
C1185       C  0.65415536  0.94704095  0.13352089    -0.19500
C1186       C  0.63299274  0.91753619  0.15743650     0.20800
C1187       C  0.64747281  0.90122230  0.17873083    -0.32500
C1188       C  0.62628209  0.87260015  0.20375739     0.01500
C1189       C  0.59026022  0.85939830  0.20670851    -0.23800
C1190       C  0.53060100  0.92170956  0.11812307    -0.28400
C1191       C  0.55179991  0.95098756  0.09377838     0.07200
C1192       C  0.58821218  0.96518437  0.09258208    -0.27100
H1193       H  0.99566554  0.86479903  0.16469326     0.11900
H1194       H  0.52236007  0.83920125  0.20593069     0.13000
H1195       H  0.65629731  0.98585058  0.09400392     0.12100
H1196       H  0.68208599  0.95767336  0.13119529     0.11300
H1197       H  0.67536595  0.91136905  0.17695060     0.16700
H1198       H  0.57413539  0.83721393  0.22614518     0.12600
H1199       H  0.50256288  0.91080898  0.11940170     0.15500
H1200       H  0.60471460  0.98766718  0.07371307     0.15300
C1201       C  0.53710248  0.64875661  0.31482548    -0.17600
C1202       C  0.55045344  0.67974100  0.29285421    -0.19800
C1203       C  0.58059430  0.71051924  0.30604257     0.20900
C1204       C  0.59735827  0.71022836  0.34179456    -0.02700
C1205       C  0.58331892  0.67922717  0.36457302    -0.05800
C1206       C  0.55326413  0.64824890  0.35076610     0.21200
C1207       C  0.59937210  0.67924120  0.40109473     0.19300
C1208       C  0.62956960  0.71004547  0.41418206    -0.17200
C1209       C  0.64403589  0.74053347  0.39101030    -0.19500
C1210       C  0.62815892  0.74087536  0.35475658     0.20800
C1211       C  0.64278325  0.77113420  0.33094716    -0.32500
C1212       C  0.62634712  0.77153546  0.29506430     0.01500
C1213       C  0.59442481  0.74148141  0.28386643    -0.23800
C1214       C  0.53977956  0.61739745  0.37328090    -0.28400
C1215       C  0.55529220  0.61740391  0.41004023     0.07200
C1216       C  0.58495291  0.64845755  0.42385688    -0.27100
H1217       H  0.51398961  0.62523682  0.30384474     0.11900
H1218       H  0.53745564  0.67953566  0.26526443     0.13000
H1219       H  0.64219852  0.71046709  0.44216376     0.12100
H1220       H  0.66760561  0.76387219  0.40149206     0.11300
H1221       H  0.66730987  0.79411189  0.34003442     0.16700
H1222       H  0.58045428  0.74193765  0.25753984     0.12600
H1223       H  0.51668765  0.59359516  0.36274335     0.15500
H1224       H  0.59707778  0.64852421  0.45212134     0.15300
C1225       C  0.79559583  0.93456489  0.41372265    -0.17600
C1226       C  0.76539391  0.92072185  0.39006557    -0.19800
C1227       C  0.76359139  0.90511831  0.35288369     0.20900
C1228       C  0.79252479  0.90350663  0.33933381    -0.02700
C1229       C  0.82330425  0.91818421  0.36276805    -0.05800
C1230       C  0.82467471  0.93350586  0.40028837     0.21200
C1231       C  0.85261959  0.91744535  0.34871761     0.19300
C1232       C  0.85063450  0.90149942  0.31168709    -0.17200
C1233       C  0.81977623  0.88613909  0.28894902    -0.19500
C1234       C  0.79063889  0.88706589  0.30251386     0.20800
C1235       C  0.75963118  0.87176802  0.27997159    -0.32500
C1236       C  0.73119437  0.87462846  0.29233106     0.01500
C1237       C  0.73341020  0.89122224  0.32899052    -0.23800
C1238       C  0.85508222  0.94750545  0.42374193    -0.28400
C1239       C  0.88452679  0.94724123  0.40979970     0.07200
C1240       C  0.88326338  0.93246825  0.37207938    -0.27100
H1241       H  0.79628430  0.94628639  0.44245372     0.11900
H1242       H  0.74335917  0.92205150  0.40095967     0.13000
H1243       H  0.87285314  0.90065430  0.30046517     0.12100
H1244       H  0.81878623  0.87376902  0.26058813     0.11300
H1245       H  0.75770130  0.85740129  0.25301652     0.16700
H1246       H  0.71172980  0.89358953  0.33887906     0.12600
H1247       H  0.85605355  0.95914631  0.45265624     0.15500
H1248       H  0.90584850  0.93202385  0.36134793     0.15300
C1249       C  0.62367806  0.95488147  0.29652690    -0.17600
C1250       C  0.60739940  0.96899596  0.31849078    -0.19800
C1251       C  0.58711646  0.95155262  0.35251305     0.20900
C1252       C  0.58335800  0.91963517  0.36462131    -0.02700
C1253       C  0.59923149  0.90507096  0.34201000    -0.05800
C1254       C  0.61954498  0.92285747  0.30789628     0.21200
C1255       C  0.59467832  0.87268492  0.35346652     0.19300
C1256       C  0.57493443  0.85555231  0.38790371    -0.17200
C1257       C  0.55972632  0.87028837  0.41073612    -0.19500
C1258       C  0.56365755  0.90219641  0.39924560     0.20800
C1259       C  0.54821290  0.91694195  0.42175611    -0.32500
C1260       C  0.55140028  0.94842232  0.40956954     0.01500
C1261       C  0.57064079  0.96547882  0.37473806    -0.23800
C1262       C  0.63506439  0.90814561  0.28549421    -0.28400
C1263       C  0.62918734  0.87505821  0.29546994     0.07200
C1264       C  0.60952984  0.85780236  0.32997438    -0.27100
H1265       H  0.63916713  0.96881181  0.27033636     0.11900
H1266       H  0.61071679  0.99359068  0.30889250     0.13000
H1267       H  0.57123274  0.83072608  0.39717737     0.12100
H1268       H  0.54465522  0.85658556  0.43724572     0.11300
H1269       H  0.53326728  0.90367709  0.44853414     0.16700
H1270       H  0.57345252  0.98996396  0.36553066     0.12600
H1271       H  0.65154269  0.92240684  0.26008050     0.15500
H1272       H  0.60517027  0.83244749  0.33803105     0.15300
C1273       C  0.89476549  0.54016630  0.81582081    -0.17600
C1274       C  0.87912107  0.55449185  0.79291656    -0.19800
C1275       C  0.88225627  0.58601944  0.80452977     0.20900
C1276       C  0.90151450  0.60332402  0.83945010    -0.02700
C1277       C  0.91671214  0.58856959  0.86298440    -0.05800
C1278       C  0.91341314  0.55688600  0.85101042     0.21200
C1279       C  0.93491520  0.60537814  0.89866980     0.19300
C1280       C  0.93861198  0.63720892  0.90987072    -0.17200
C1281       C  0.92412434  0.65213729  0.88612805    -0.19500
C1282       C  0.90531078  0.63522916  0.85110914     0.20800
C1283       C  0.89017794  0.64971893  0.82765872    -0.32500
C1284       C  0.87058505  0.63273705  0.79312647     0.01500
C1285       C  0.86632203  0.60045838  0.78206792    -0.23800
C1286       C  0.92851256  0.54235125  0.87466700    -0.28400
C1287       C  0.94585408  0.55852650  0.91073890     0.07200
C1288       C  0.94891304  0.58996538  0.92262129    -0.27100
H1289       H  0.89197703  0.51580961  0.80622555     0.11900
H1290       H  0.86460234  0.54092949  0.76608145     0.13000
H1291       H  0.95267446  0.65054310  0.93702340     0.12100
H1292       H  0.92730659  0.67674334  0.89539197     0.11300
H1293       H  0.89410309  0.67446294  0.83625141     0.16700
H1294       H  0.85045520  0.58643323  0.75618145     0.12600
H1295       H  0.92602061  0.51798862  0.86559738     0.15500
H1296       H  0.96260174  0.60262742  0.95024142     0.15300
C1297       C  0.91732729  0.77135693  0.89077768    -0.17600
C1298       C  0.93182936  0.80178193  0.91394573    -0.19800
C1299       C  0.92772213  0.82941497  0.90231056     0.20900
C1300       C  0.90867960  0.82631082  0.86707309    -0.02700
C1301       C  0.89365186  0.79539516  0.84400131    -0.05800
C1302       C  0.89823373  0.76797328  0.85579978     0.21200
C1303       C  0.87407688  0.79192344  0.80917078     0.19300
C1304       C  0.86979897  0.81947992  0.79763162    -0.17200
C1305       C  0.88518540  0.85039682  0.82012535    -0.19500
C1306       C  0.90477150  0.85412081  0.85479734     0.20800
C1307       C  0.92056750  0.88512690  0.87738471    -0.32500
C1308       C  0.93931570  0.88822452  0.91266846     0.01500
C1309       C  0.94246057  0.86014804  0.92517420    -0.23800
C1310       C  0.88401695  0.73776320  0.83221463    -0.28400
C1311       C  0.86540600  0.73429682  0.79678877     0.07200
C1312       C  0.85944734  0.76111809  0.78632091    -0.27100
H1313       H  0.92108464  0.75047331  0.90018931     0.11900
H1314       H  0.94644628  0.80378604  0.94083938     0.13000
H1315       H  0.85488087  0.81727677  0.77094090     0.12100
H1316       H  0.88177456  0.87141765  0.81038585     0.11300
H1317       H  0.91782561  0.90664902  0.86793587     0.16700
H1318       H  0.95703984  0.86255753  0.95228448     0.12600
H1319       H  0.88804254  0.71731613  0.84139552     0.15500
H1320       H  0.84361226  0.75819078  0.76027508     0.15300
C1321       C  0.67460151  0.55128887  0.79626740    -0.17600
C1322       C  0.64357265  0.53778837  0.81840936    -0.19800
C1323       C  0.64255662  0.55497150  0.85314882     0.20900
C1324       C  0.67309228  0.58617143  0.86556724    -0.02700
C1325       C  0.70416130  0.60020849  0.84269763    -0.05800
C1326       C  0.70496467  0.58250744  0.80811981     0.21200
C1327       C  0.73441235  0.63189653  0.85449017     0.19300
C1328       C  0.73353737  0.64889715  0.88944624    -0.17200
C1329       C  0.70298223  0.63460522  0.91259981    -0.19500
C1330       C  0.67263129  0.60334130  0.90086206     0.20800
C1331       C  0.64186758  0.58892864  0.92383306    -0.32500
C1332       C  0.61124668  0.55808114  0.91144197     0.01500
C1333       C  0.61166827  0.54141100  0.87585295    -0.23800
C1334       C  0.73605007  0.59641254  0.78588849    -0.28400
C1335       C  0.76581109  0.62887949  0.79619760     0.07200
C1336       C  0.76486338  0.64621400  0.83090626    -0.27100
H1337       H  0.67476402  0.53748695  0.76963134     0.11900
H1338       H  0.62041675  0.51378398  0.80849263     0.13000
H1339       H  0.75653916  0.67320978  0.89896328     0.12100
H1340       H  0.70302871  0.64813024  0.93958960     0.11300
H1341       H  0.64160112  0.60193837  0.95116815     0.16700
H1342       H  0.58821162  0.51742014  0.86643020     0.12600
H1343       H  0.73697705  0.58178562  0.76066613     0.15500
H1344       H  0.78762346  0.67119860  0.83920679     0.15300
C1345       C  0.85971612  0.55345429  0.60048849    -0.17600
C1346       C  0.84515422  0.56926917  0.62234966    -0.19800
C1347       C  0.86582312  0.59642274  0.64934038     0.20900
C1348       C  0.90166731  0.60824278  0.65394059    -0.02700
C1349       C  0.91648613  0.59264980  0.63140441    -0.05800
C1350       C  0.89525081  0.56482411  0.60497023     0.21200
C1351       C  0.95240275  0.60464419  0.63561247     0.19300
C1352       C  0.97311316  0.63202993  0.66241887    -0.17200
C1353       C  0.95825681  0.64709473  0.68532560    -0.19500
C1354       C  0.92255306  0.63528485  0.68143598     0.20800
C1355       C  0.90714363  0.64951259  0.70500581    -0.32500
C1356       C  0.87128158  0.63711633  0.70106541     0.01500
C1357       C  0.85106487  0.61140826  0.67247184    -0.23800
C1358       C  0.90986680  0.54877281  0.58352534    -0.28400
C1359       C  0.94561989  0.56066896  0.58736772     0.07200
C1360       C  0.96685472  0.58885533  0.61313564    -0.27100
H1361       H  0.84315025  0.53224154  0.58015353     0.11900
H1362       H  0.81759679  0.55993802  0.61856234     0.13000
H1363       H  0.00072582  0.64153938  0.66599502     0.12100
H1364       H  0.97465259  0.66786872  0.70622256     0.11300
H1365       H  0.92275777  0.66978292  0.72680974     0.16700
H1366       H  0.82351807  0.60215163  0.66935581     0.12600
H1367       H  0.89352921  0.52737979  0.56324783     0.15500
H1368       H  0.99446908  0.59809833  0.61615535     0.15300
C1369       C  0.85439489  0.80295586  0.60011763    -0.17600
C1370       C  0.84043685  0.77219997  0.62274274    -0.19800
C1371       C  0.86109783  0.76827004  0.65141299     0.20900
C1372       C  0.89627812  0.79546774  0.65715434    -0.02700
C1373       C  0.91047586  0.82631633  0.63398380    -0.05800
C1374       C  0.88932751  0.83020329  0.60557764     0.21200
C1375       C  0.94578825  0.85327903  0.63933226     0.19300
C1376       C  0.96644802  0.84936027  0.66803274    -0.17200
C1377       C  0.95224813  0.81899301  0.69137075    -0.19500
C1378       C  0.91725031  0.79190878  0.68613129     0.20800
C1379       C  0.90278867  0.76141434  0.70946026    -0.32500
C1380       C  0.86768591  0.73451158  0.70412945     0.01500
C1381       C  0.84714122  0.73778870  0.67469834    -0.23800
C1382       C  0.90350243  0.86124794  0.58316604    -0.28400
C1383       C  0.93877265  0.88803523  0.58809212     0.07200
C1384       C  0.95980156  0.88372518  0.61597771    -0.27100
H1385       H  0.83784730  0.80543386  0.57833214     0.11900
H1386       H  0.81338818  0.75155970  0.61800090     0.13000
H1387       H  0.99357515  0.86987616  0.67256713     0.12100
H1388       H  0.96866258  0.81667288  0.71350188     0.11300
H1389       H  0.91867842  0.75856232  0.73189709     0.16700
H1390       H  0.82005214  0.71691803  0.67067810     0.12600
H1391       H  0.88733245  0.86432773  0.56135686     0.15500
H1392       H  0.98698539  0.90437963  0.61993716     0.15300
C1393       C  0.67840394  0.53764109  0.61998875    -0.17600
C1394       C  0.70930449  0.55233963  0.64251820    -0.19800
C1395       C  0.72276310  0.58490908  0.66121231     0.20900
C1396       C  0.70497398  0.60293473  0.65718545    -0.02700
C1397       C  0.67398830  0.58826357  0.63406059    -0.05800
C1398       C  0.66057473  0.55537796  0.61555112     0.21200
C1399       C  0.65643530  0.60645365  0.62954059     0.19300
C1400       C  0.66989130  0.63902955  0.64833838    -0.17200
C1401       C  0.70036701  0.65337563  0.67169676    -0.19500
C1402       C  0.71806556  0.63552678  0.67637868     0.20800
C1403       C  0.74849865  0.64952333  0.70000527    -0.32500
C1404       C  0.76609938  0.63152979  0.70404042     0.01500
C1405       C  0.75352046  0.59961993  0.68415120    -0.23800
C1406       C  0.62961181  0.54079457  0.59289430    -0.28400
C1407       C  0.61201204  0.55880553  0.58802173     0.07200
C1408       C  0.62572214  0.59172629  0.60638171    -0.27100
H1409       H  0.66847606  0.51239721  0.60595379     0.11900
H1410       H  0.72262160  0.53815661  0.64545370     0.13000
H1411       H  0.65673345  0.65334736  0.64514083     0.12100
H1412       H  0.71010345  0.67844685  0.68609377     0.11300
H1413       H  0.75857152  0.67432744  0.71524903     0.16700
H1414       H  0.76696879  0.58565628  0.68786758     0.12600
H1415       H  0.61942620  0.51555019  0.57871408     0.15500
H1416       H  0.61235428  0.60583095  0.60293233     0.15300
loop_ 
_geom_bond_atom_site_label_1 
_geom_bond_atom_site_label_2 
_geom_bond_distance 
_geom_bond_site_symmetry_2 
_ccdc_geom_bond_type 
C1            H2   1.112       .  S
C1            C7   1.532       .  S
C1            C6   1.531       .  S
C1            C5   1.533       .  S
C3            H4   1.108       .  S
C3            C9   1.540       .  S
C3            C8   1.547       .  S
C3           C10   1.547       .  S
C5            C8   1.378       .  D
C5          C318   1.485       .  S
C6            C9   1.375       .  D
C6          C342   1.476       .  S
C7           C10   1.380       .  D
C7          C294   1.479       .  S
C8          C249   1.495       .  S
C9          C273   1.492       .  S
C10         C222   1.503       .  S
C11          H12   1.110       .  S
C11          C17   1.542       .  S
C11          C16   1.540       .  S
C11          C15   1.541       .  S
C13          H14   1.112       .  S
C13          C19   1.530       .  S
C13          C18   1.525       .  S
C13          C20   1.528       .  S
C15          C18   1.375       .  D
C15         C174   1.486       .  S
C16          C19   1.377       .  D
C16         C150   1.489       .  S
C17          C20   1.377       .  D
C17         C201   1.492       .  S
C18         C102   1.474       .  S
C19          C78   1.476       .  S
C20         C126   1.475       .  S
O21          C37   1.277       .  A
O21        Zn381   2.032       .  S
C22          O38   1.275       .  A
C22          O35   1.272       .  A
C22          C81   1.478       .  S
O23          C36   1.276       .  A
O23         Cd30   2.075       .  S
O24          C42   1.273       .  A
O24         Cd33   2.058   1_556  S
O25          C39   1.276       .  A
O25        Cd737   2.069   1_455  S
O26          C37   1.274       .  A
O26         Cd29   2.066       .  S
Zn27         O40   2.009   1_554  S
Zn27        O375   2.030   1_545  S
Zn27        O746   2.025       .  S
Zn27         O32   1.943       .  S
O28          C39   1.275       .  A
O28        Cd387   2.067       .  S
Cd29         O31   2.073   1_554  S
Cd29        O733   2.063       .  S
Cd29        O386   1.997       .  S
Cd30        O388   2.078   1_545  S
Cd30        O751   2.087       .  S
Cd30         O32   2.005   1_556  S
O31          C41   1.275       .  A
O32        Cd383   1.997   1_545  S
O32        Cd741   1.995       .  S
Cd33         O35   2.061       .  S
Cd33        O382   2.054   1_545  S
Cd33        O740   1.995   1_454  S
O34          C41   1.274       .  A
O34        Cd384   2.071       .  S
C36          O40   1.274       .  A
C36         C225   1.477       .  S
C37         C105   1.481       .  S
O38        Zn735   2.028   1_455  S
C39         C129   1.477       .  S
C41         C246   1.476       .  S
C42          O43   1.278       .  A
C42         C270   1.477       .  S
O43        Cd738   2.086   1_455  S
O44          C60   1.275       .  A
O44        Zn404   2.031   1_545  S
C45          O61   1.275       .  A
C45          O58   1.277       .  A
C45         C321   1.481       .  S
O46          C59   1.275       .  A
O46       Cd1115   2.068   1_455  S
O47          C65   1.274       .  A
O47         Cd56   2.061       .  S
O48          C62   1.274       .  A
O48        Cd760   2.064       .  S
O49          C60   1.273       .  A
O49         Cd52   2.053       .  S
Zn50         O63   2.030       .  S
Zn50        O398   2.038       .  S
Zn50        O769   2.025   1_455  S
Zn50       O1117   1.945   1_455  S
O51          C62   1.276       .  A
O51        Cd410   2.076   1_545  S
Cd52         O54   2.068       .  S
Cd52        O756   2.064   1_455  S
Cd52        O763   1.997   1_455  S
Cd53       O1108   2.075   1_545  S
Cd53        O765   2.073       .  S
Cd53        O420   2.078   1_545  S
Cd53         O55   2.005       .  S
O54          C64   1.274       .  A
O55       Zn1112   1.944   1_545  S
O55        Cd760   1.997       .  S
O55        Cd410   2.000   1_545  S
Cd56         O58   2.088       .  S
Cd56        O405   2.070       .  S
Cd56        O409   1.998       .  S
O57          C64   1.276       .  A
O57        Cd761   2.075   1_455  S
C59          O63   1.276       .  A
C59         C198   1.478       .  S
C60         C345   1.482       .  S
O61        Zn758   2.023       .  S
C62         C297   1.477       .  S
C64         C153   1.477       .  S
C65          O66   1.275       .  A
C65         C177   1.473       .  S
O66        Cd407   2.075       .  S
C67          C68   1.399       .  A
C67          C72   1.404       .  A
C67          H83   1.084       .  S
C68          C69   1.403       .  A
C68          H84   1.084       .  S
C69          C79   1.402       .  A
C69          C70   1.413       .  A
C70          C76   1.412       .  A
C70          C71   1.411       .  A
C71          C73   1.412       .  A
C71          C72   1.411       .  A
C72          C80   1.403       .  A
C73          C82   1.402       .  A
C73          C74   1.403       .  A
C74          C75   1.398       .  A
C74          H85   1.084       .  S
C75          C76   1.402       .  A
C75          H86   1.084       .  S
C76          C77   1.400       .  A
C77          C78   1.401       .  A
C77          H87   1.085       .  S
C78          C79   1.404       .  A
C79          H88   1.084       .  S
C80          C81   1.407       .  A
C80          H89   1.084       .  S
C81          C82   1.405       .  A
C82          H90   1.084       .  S
C91          C92   1.398       .  A
C91          C96   1.403       .  A
C91         H461   1.083       .  S
C92          C93   1.402       .  A
C92         H108   1.084       .  S
C93         C103   1.401       .  A
C93          C94   1.413       .  A
C94         C100   1.412       .  A
C94          C95   1.411       .  A
C95          C97   1.411       .  A
C95          C96   1.411       .  A
C96         C104   1.402       .  A
C97         C106   1.403       .  A
C97          C98   1.404       .  A
C98          C99   1.399       .  A
C98         H109   1.084       .  S
C99         C100   1.403       .  A
C99         H110   1.084       .  S
C100        C101   1.402       .  A
C101        C102   1.403       .  A
C101        H111   1.085       .  S
C102        C103   1.401       .  A
C103        H112   1.084       .  S
C104        C105   1.406       .  A
C104        H467   1.084       .  S
C105        C106   1.408       .  A
C106        H114   1.084       .  S
H107        C445   1.083   1_545  S
H113        C458   1.084       .  S
C115        C116   1.398       .  A
C115        C120   1.403       .  A
C115        H839   1.084   1_455  S
C116        C117   1.402       .  A
C116        H132   1.084       .  S
C117        C127   1.400       .  A
C117        C118   1.412       .  A
C118        C124   1.412       .  A
C118        C119   1.410       .  A
C119        C121   1.411       .  A
C119        C120   1.411       .  A
C120        C128   1.401       .  A
C121        C130   1.403       .  A
C121        C122   1.404       .  A
C122        C123   1.399       .  A
C122        H133   1.084       .  S
C123        C124   1.403       .  A
C123        H134   1.084       .  S
C124        C125   1.402       .  A
C125        C126   1.403       .  A
C125        H135   1.085       .  S
C126        C127   1.402       .  A
C127        H136   1.084       .  S
C128        C129   1.405       .  A
C128        H137   1.084       .  S
C129        C130   1.407       .  A
C130        H138   1.084       .  S
H131        C823   1.084       .  S
C139        C140   1.398       .  A
C139        C144   1.403       .  A
C139        H155   1.084       .  S
C140        C141   1.403       .  A
C140        H156   1.084       .  S
C141        C151   1.400       .  A
C141        C142   1.410       .  A
C142        C148   1.412       .  A
C142        C143   1.412       .  A
C143        C145   1.411       .  A
C143        C144   1.412       .  A
C144        C152   1.402       .  A
C145        C154   1.404       .  A
C145        C146   1.404       .  A
C146        C147   1.400       .  A
C146        H157   1.084       .  S
C147        C148   1.404       .  A
C147        H158   1.084       .  S
C148        C149   1.405       .  A
C149        C150   1.406       .  A
C149        H159   1.084       .  S
C150        C151   1.407       .  A
C151        H160   1.083       .  S
C152        C153   1.405       .  A
C152        H161   1.084       .  S
C153        C154   1.407       .  A
C154        H162   1.084       .  S
C163        C164   1.399       .  A
C163        C168   1.404       .  A
C163        H179   1.084       .  S
C164        C165   1.403       .  A
C164        H180   1.084       .  S
C165        C175   1.404       .  A
C165        C166   1.413       .  A
C166        C172   1.409       .  A
C166        C167   1.411       .  A
C167        C169   1.413       .  A
C167        C168   1.411       .  A
C168        C176   1.401       .  A
C169        C178   1.403       .  A
C169        C170   1.403       .  A
C170        C171   1.398       .  A
C170        H181   1.084       .  S
C171        C172   1.404       .  A
C171        H182   1.084       .  S
C172        C173   1.399       .  A
C173        C174   1.407       .  A
C173        H183   1.082       .  S
C174        C175   1.404       .  A
C175        H184   1.084       .  S
C176        C177   1.405       .  A
C176        H185   1.084       .  S
C177        C178   1.405       .  A
C178        H186   1.084       .  S
C187        C188   1.399       .  A
C187        C192   1.403       .  A
C187        H203   1.084       .  S
C188        C189   1.403       .  A
C188        H204   1.084       .  S
C189        C199   1.403       .  A
C189        C190   1.412       .  A
C190        C196   1.412       .  A
C190        C191   1.413       .  A
C191        C193   1.412       .  A
C191        C192   1.410       .  A
C192        C200   1.402       .  A
C193        C202   1.405       .  A
C193        C194   1.404       .  A
C194        C195   1.400       .  A
C194        H205   1.084       .  S
C195        C196   1.404       .  A
C195        H206   1.084       .  S
C196        C197   1.405       .  A
C197        C198   1.407       .  A
C197        H207   1.084       .  S
C198        C199   1.406       .  A
C199        H208   1.084       .  S
C200        C201   1.408       .  A
C200        H209   1.083       .  S
C201        C202   1.406       .  A
C202        H210   1.084       .  S
C211        C212   1.400       .  A
C211        C216   1.404       .  A
C211        H227   1.083       .  S
C212        C213   1.404       .  A
C212        H228   1.084       .  S
C213        C223   1.403       .  A
C213        C214   1.409       .  A
C214        C220   1.409       .  A
C214        C215   1.411       .  A
C215        C217   1.411       .  A
C215        C216   1.412       .  A
C216        C224   1.404       .  A
C217        C226   1.400       .  A
C217        C218   1.403       .  A
C218        C219   1.398       .  A
C218        H229   1.084       .  S
C219        C220   1.403       .  A
C219        H230   1.084       .  S
C220        C221   1.400       .  A
C221        C222   1.406       .  A
C221        H231   1.074       .  S
C222        C223   1.412       .  A
C223        H232   1.081       .  S
C224        C225   1.406       .  A
C224        H233   1.084       .  S
C225        C226   1.406       .  A
C226        H234   1.084       .  S
C235        C236   1.398       .  A
C235        C240   1.403       .  A
C235        H251   1.084       .  S
C236        C237   1.403       .  A
C236        H252   1.084       .  S
C237        C247   1.402       .  A
C237        C238   1.412       .  A
C238        C244   1.411       .  A
C238        C239   1.412       .  A
C239        C241   1.411       .  A
C239        C240   1.409       .  A
C240        C248   1.400       .  A
C241        C250   1.405       .  A
C241        C242   1.404       .  A
C242        C243   1.401       .  A
C242        H253   1.084       .  S
C243        C244   1.404       .  A
C243        H254   1.083       .  S
C244        C245   1.405       .  A
C245        C246   1.407       .  A
C245        H255   1.084       .  S
C246        C247   1.405       .  A
C247        H256   1.084       .  S
C248        C249   1.403       .  A
C248        H257   1.074       .  S
C249        C250   1.410       .  A
C250        H258   1.083       .  S
C259        C260   1.399       .  A
C259        C264   1.404       .  A
C259        H275   1.084       .  S
C260        C261   1.403       .  A
C260        H276   1.084       .  S
C261        C271   1.403       .  A
C261        C262   1.412       .  A
C262        C268   1.411       .  A
C262        C263   1.412       .  A
C263        C265   1.412       .  A
C263        C264   1.410       .  A
C264        C272   1.402       .  A
C265        C274   1.405       .  A
C265        C266   1.404       .  A
C266        C267   1.400       .  A
C266        H277   1.084       .  S
C267        C268   1.404       .  A
C267        H278   1.084       .  S
C268        C269   1.403       .  A
C269        C270   1.407       .  A
C269        H279   1.084       .  S
C270        C271   1.405       .  A
C271        H280   1.084       .  S
C272        C273   1.407       .  A
C272        H281   1.081       .  S
C273        C274   1.407       .  A
C274        H282   1.084       .  S
C283        C284   1.397       .  A
C283        C288   1.403       .  A
C283        H299   1.084       .  S
C284        C285   1.402       .  A
C284        H300   1.084       .  S
C285        C295   1.399       .  A
C285        C286   1.411       .  A
C286        C292   1.412       .  A
C286        C287   1.410       .  A
C287        C289   1.411       .  A
C287        C288   1.412       .  A
C288        C296   1.400       .  A
C289        C298   1.404       .  A
C289        C290   1.404       .  A
C290        C291   1.400       .  A
C290        H301   1.083       .  S
C291        C292   1.403       .  A
C291        H302   1.084       .  S
C292        C293   1.403       .  A
C293        C294   1.405       .  A
C293        H303   1.084       .  S
C294        C295   1.401       .  A
C295        H304   1.081       .  S
C296        C297   1.405       .  A
C296        H305   1.084       .  S
C297        C298   1.408       .  A
C298        H306   1.084       .  S
C307        C308   1.401       .  A
C307        C312   1.405       .  A
C307        H323   1.083       .  S
C308        C309   1.404       .  A
C308        H324   1.084       .  S
C309        C319   1.405       .  A
C309        C310   1.412       .  A
C310        C316   1.412       .  A
C310        C311   1.413       .  A
C311        C313   1.411       .  A
C311        C312   1.412       .  A
C312        C320   1.407       .  A
C313        C322   1.403       .  A
C313        C314   1.403       .  A
C314        C315   1.398       .  A
C314        H325   1.083       .  S
C315        C316   1.403       .  A
C315        H326   1.084       .  S
C316        C317   1.402       .  A
C317        C318   1.405       .  A
C317        H327   1.084       .  S
C318        C319   1.405       .  A
C319        H328   1.084       .  S
C320        C321   1.408       .  A
C320        H329   1.084       .  S
C321        C322   1.406       .  A
C322        H330   1.084       .  S
C331        C332   1.399       .  A
C331        C336   1.404       .  A
C331        H347   1.084       .  S
C332        C333   1.403       .  A
C332        H348   1.084       .  S
C333        C343   1.402       .  A
C333        C334   1.411       .  A
C334        C340   1.413       .  A
C334        C335   1.411       .  A
C335        C337   1.410       .  A
C335        C336   1.412       .  A
C336        C344   1.405       .  A
C337        C346   1.400       .  A
C337        C338   1.404       .  A
C338        C339   1.398       .  A
C338        H349   1.084       .  S
C339        C340   1.402       .  A
C339        H350   1.084       .  S
C340        C341   1.402       .  A
C341        C342   1.401       .  A
C341        H351   1.085       .  S
C342        C343   1.403       .  A
C343        H352   1.082       .  S
C344        C345   1.408       .  A
C344        H353   1.084       .  S
C345        C346   1.408       .  A
C346        H354   1.084       .  S
C355        H356   1.112       .  S
C355        C361   1.532       .  S
C355        C360   1.529       .  S
C355        C359   1.532       .  S
C357        H358   1.109       .  S
C357        C363   1.545       .  S
C357        C362   1.544       .  S
C357        C364   1.548       .  S
C359        C362   1.378       .  D
C359        C672   1.480       .  S
C360        C363   1.375       .  D
C360        C696   1.479       .  S
C361        C364   1.377       .  D
C361        C648   1.478       .  S
C362        C603   1.494       .  S
C363        C627   1.491       .  S
C364        C576   1.501       .  S
C365        H366   1.109       .  S
C365        C371   1.537       .  S
C365        C370   1.540       .  S
C365        C369   1.543       .  S
C367        H368   1.112       .  S
C367        C373   1.530       .  S
C367        C372   1.527       .  S
C367        C374   1.528       .  S
C369        C372   1.377       .  D
C369        C528   1.489       .  S
C370        C373   1.378       .  D
C370        C504   1.492       .  S
C371        C374   1.373       .  D
C371        C555   1.489       .  S
C372        C456   1.474       .  S
C373        C432   1.478       .  S
C374        C480   1.471       .  S
O375        C391   1.276       .  A
C376        O392   1.274       .  A
C376        O389   1.274       .  A
C376        C435   1.477       .  S
O377        C390   1.274       .  A
O377       Cd384   2.065       .  S
O378        C396   1.275       .  A
O378       Cd387   2.067   1_556  S
O379        C393   1.275       .  A
O379      Cd1091   2.069   1_455  S
O380        C391   1.275       .  A
O380       Cd383   2.068       .  S
Zn381      O1100   2.021       .  S
Zn381       O394   2.020   1_554  S
Zn381       O386   1.945       .  S
O382        C393   1.273       .  A
Cd383      O1087   2.069       .  S
Cd383       O385   2.070   1_554  S
Cd384      O1105   2.081       .  S
Cd384       O386   2.004   1_556  S
O385        C395   1.274       .  A
O386      Cd1095   2.001       .  S
Cd387       O389   2.071       .  S
Cd387      O1094   2.001   1_455  S
O388        C395   1.275       .  A
C390        O394   1.275       .  A
C390        C579   1.475       .  S
C391        C459   1.480       .  S
O392      Zn1089   2.017   1_455  S
C393        C483   1.476       .  S
C395        C600   1.476       .  S
C396        O397   1.276       .  A
C396        C624   1.478       .  S
O397      Cd1092   2.080   1_455  S
O398        C414   1.277       .  A
C399        O415   1.274       .  A
C399        O412   1.276       .  A
C399        C675   1.476       .  S
O400        C413   1.275       .  A
O400       Cd761   2.077   1_465  S
O401        C419   1.275       .  A
O401       Cd410   2.066       .  S
O402        C416   1.273       .  A
O402      Cd1114   2.062       .  S
O403        C414   1.273       .  A
O403       Cd406   2.060       .  S
Zn404      O1123   2.014   1_455  S
Zn404       O417   2.012       .  S
Zn404       O763   1.944   1_465  S
O405        C416   1.276       .  A
Cd406      O1110   2.062   1_455  S
Cd406       O408   2.064       .  S
Cd406      O1117   1.998   1_455  S
Cd407       O754   2.070       .  S
Cd407      O1119   2.077       .  S
Cd407       O409   2.005       .  S
O408        C418   1.274       .  A
O409       Zn758   1.944       .  S
O409      Cd1114   1.998       .  S
Cd410       O412   2.083       .  S
O411        C418   1.275       .  A
O411      Cd1115   2.077   1_455  S
C413        O417   1.274       .  A
C413        C552   1.476       .  S
C414        C699   1.485       .  S
O415      Zn1112   2.013       .  S
C416        C651   1.475       .  S
C418        C507   1.477       .  S
C419        O420   1.276       .  A
C419        C531   1.477       .  S
C421        C422   1.399       .  A
C421        C426   1.403       .  A
C421        H437   1.083       .  S
C422        C423   1.403       .  A
C422        H438   1.084       .  S
C423        C433   1.401       .  A
C423        C424   1.412       .  A
C424        C430   1.413       .  A
C424        C425   1.411       .  A
C425        C427   1.411       .  A
C425        C426   1.412       .  A
C426        C434   1.403       .  A
C427        C436   1.402       .  A
C427        C428   1.404       .  A
C428        C429   1.399       .  A
C428        H439   1.084       .  S
C429        C430   1.403       .  A
C429        H440   1.084       .  S
C430        C431   1.402       .  A
C431        C432   1.402       .  A
C431        H441   1.085       .  S
C432        C433   1.404       .  A
C433        H442   1.084       .  S
C434        C435   1.406       .  A
C434        H443   1.084       .  S
C435        C436   1.406       .  A
C436        H444   1.084       .  S
C445        C446   1.399       .  A
C445        C450   1.404       .  A
C446        C447   1.403       .  A
C446        H462   1.084       .  S
C447        C457   1.402       .  A
C447        C448   1.413       .  A
C448        C454   1.412       .  A
C448        C449   1.411       .  A
C449        C451   1.411       .  A
C449        C450   1.412       .  A
C450        C458   1.403       .  A
C451        C460   1.403       .  A
C451        C452   1.404       .  A
C452        C453   1.398       .  A
C452        H463   1.084       .  S
C453        C454   1.403       .  A
C453        H464   1.084       .  S
C454        C455   1.401       .  A
C455        C456   1.402       .  A
C455        H465   1.085       .  S
C456        C457   1.403       .  A
C457        H466   1.084       .  S
C458        C459   1.407       .  A
C459        C460   1.407       .  A
C460        H468   1.084       .  S
C469        C470   1.398       .  A
C469        C474   1.403       .  A
C469       H1193   1.084   1_455  S
C470        C471   1.402       .  A
C470        H486   1.083       .  S
C471        C481   1.400       .  A
C471        C472   1.412       .  A
C472        C478   1.412       .  A
C472        C473   1.409       .  A
C473        C475   1.411       .  A
C473        C474   1.412       .  A
C474        C482   1.401       .  A
C475        C484   1.400       .  A
C475        C476   1.404       .  A
C476        C477   1.398       .  A
C476        H487   1.084       .  S
C477        C478   1.403       .  A
C477        H488   1.084       .  S
C478        C479   1.400       .  A
C479        C480   1.401       .  A
C479        H489   1.085       .  S
C480        C481   1.401       .  A
C481        H490   1.085       .  S
C482        C483   1.405       .  A
C482        H491   1.084       .  S
C483        C484   1.407       .  A
C484        H492   1.084       .  S
H485       C1177   1.084       .  S
C493        C494   1.398       .  A
C493        C498   1.403       .  A
C493        H509   1.084       .  S
C494        C495   1.403       .  A
C494        H510   1.084       .  S
C495        C505   1.400       .  A
C495        C496   1.410       .  A
C496        C502   1.411       .  A
C496        C497   1.411       .  A
C497        C499   1.411       .  A
C497        C498   1.412       .  A
C498        C506   1.403       .  A
C499        C508   1.402       .  A
C499        C500   1.404       .  A
C500        C501   1.399       .  A
C500        H511   1.084       .  S
C501        C502   1.404       .  A
C501        H512   1.084       .  S
C502        C503   1.404       .  A
C503        C504   1.407       .  A
C503        H513   1.084       .  S
C504        C505   1.408       .  A
C505        H514   1.082       .  S
C506        C507   1.406       .  A
C506        H515   1.084       .  S
C507        C508   1.407       .  A
C508        H516   1.084       .  S
C517        C518   1.398       .  A
C517        C522   1.403       .  A
C517        H533   1.084       .  S
C518        C519   1.402       .  A
C518        H534   1.084       .  S
C519        C529   1.401       .  A
C519        C520   1.411       .  A
C520        C526   1.409       .  A
C520        C521   1.411       .  A
C521        C523   1.412       .  A
C521        C522   1.411       .  A
C522        C530   1.401       .  A
C523        C532   1.404       .  A
C523        C524   1.404       .  A
C524        C525   1.399       .  A
C524        H535   1.084       .  S
C525        C526   1.404       .  A
C525        H536   1.084       .  S
C526        C527   1.401       .  A
C527        C528   1.409       .  A
C527        H537   1.081       .  S
C528        C529   1.405       .  A
C529        H538   1.084       .  S
C530        C531   1.406       .  A
C530        H539   1.084       .  S
C531        C532   1.406       .  A
C532        H540   1.084       .  S
C541        C542   1.400       .  A
C541        C546   1.404       .  A
C541        H557   1.084       .  S
C542        C543   1.404       .  A
C542        H558   1.084       .  S
C543        C553   1.405       .  A
C543        C544   1.413       .  A
C544        C550   1.411       .  A
C544        C545   1.412       .  A
C545        C547   1.412       .  A
C545        C546   1.410       .  A
C546        C554   1.402       .  A
C547        C556   1.404       .  A
C547        C548   1.403       .  A
C548        C549   1.399       .  A
C548        H559   1.084       .  S
C549        C550   1.403       .  A
C549        H560   1.084       .  S
C550        C551   1.401       .  A
C551        C552   1.405       .  A
C551        H561   1.084       .  S
C552        C553   1.406       .  A
C553        H562   1.084       .  S
C554        C555   1.408       .  A
C554        H563   1.082       .  S
C555        C556   1.404       .  A
C556        H564   1.084       .  S
C565        C566   1.401       .  A
C565        C570   1.404       .  A
C565        H581   1.084       .  S
C566        C567   1.404       .  A
C566        H582   1.084       .  S
C567        C577   1.406       .  A
C567        C568   1.411       .  A
C568        C574   1.407       .  A
C568        C569   1.411       .  A
C569        C571   1.412       .  A
C569        C570   1.411       .  A
C570        C578   1.404       .  A
C571        C580   1.402       .  A
C571        C572   1.402       .  A
C572        C573   1.398       .  A
C572        H583   1.084       .  S
C573        C574   1.404       .  A
C573        H584   1.084       .  S
C574        C575   1.399       .  A
C575        C576   1.404       .  A
C575        H585   1.070       .  S
C576        C577   1.411       .  A
C577        H586   1.082       .  S
C578        C579   1.407       .  A
C578        H587   1.084       .  S
C579        C580   1.405       .  A
C580        H588   1.085       .  S
C589        C590   1.398       .  A
C589        C594   1.404       .  A
C589        H605   1.084       .  S
C590        C591   1.403       .  A
C590        H606   1.084       .  S
C591        C601   1.403       .  A
C591        C592   1.412       .  A
C592        C598   1.411       .  A
C592        C593   1.411       .  A
C593        C595   1.411       .  A
C593        C594   1.408       .  A
C594        C602   1.400       .  A
C595        C604   1.405       .  A
C595        C596   1.403       .  A
C596        C597   1.400       .  A
C596        H607   1.084       .  S
C597        C598   1.404       .  A
C597        H608   1.083       .  S
C598        C599   1.404       .  A
C599        C600   1.406       .  A
C599        H609   1.084       .  S
C600        C601   1.405       .  A
C601        H610   1.084       .  S
C602        C603   1.403       .  A
C602        H611   1.070       .  S
C603        C604   1.408       .  A
C604        H612   1.083       .  S
C613        C614   1.399       .  A
C613        C618   1.404       .  A
C613        H629   1.084       .  S
C614        C615   1.404       .  A
C614        H630   1.084       .  S
C615        C625   1.404       .  A
C615        C616   1.412       .  A
C616        C622   1.411       .  A
C616        C617   1.412       .  A
C617        C619   1.412       .  A
C617        C618   1.410       .  A
C618        C626   1.401       .  A
C619        C628   1.404       .  A
C619        C620   1.403       .  A
C620        C621   1.399       .  A
C620        H631   1.084       .  S
C621        C622   1.404       .  A
C621        H632   1.084       .  S
C622        C623   1.402       .  A
C623        C624   1.406       .  A
C623        H633   1.084       .  S
C624        C625   1.406       .  A
C625        H634   1.084       .  S
C626        C627   1.408       .  A
C626        H635   1.080       .  S
C627        C628   1.406       .  A
C628        H636   1.084       .  S
C637        C638   1.396       .  A
C637        C642   1.402       .  A
C637        H653   1.084       .  S
C638        C639   1.402       .  A
C638        H654   1.084       .  S
C639        C649   1.398       .  A
C639        C640   1.411       .  A
C640        C646   1.412       .  A
C640        C641   1.410       .  A
C641        C643   1.412       .  A
C641        C642   1.411       .  A
C642        C650   1.399       .  A
C643        C652   1.404       .  A
C643        C644   1.404       .  A
C644        C645   1.400       .  A
C644        H655   1.084       .  S
C645        C646   1.404       .  A
C645        H656   1.084       .  S
C646        C647   1.404       .  A
C647        C648   1.405       .  A
C647        H657   1.084       .  S
C648        C649   1.400       .  A
C649        H658   1.081       .  S
C650        C651   1.404       .  A
C650        H659   1.084       .  S
C651        C652   1.407       .  A
C652        H660   1.084       .  S
C661        C662   1.399       .  A
C661        C666   1.404       .  A
C661        H677   1.083       .  S
C662        C663   1.403       .  A
C662        H678   1.084       .  S
C663        C673   1.402       .  A
C663        C664   1.412       .  A
C664        C670   1.412       .  A
C664        C665   1.411       .  A
C665        C667   1.411       .  A
C665        C666   1.413       .  A
C666        C674   1.404       .  A
C667        C676   1.402       .  A
C667        C668   1.404       .  A
C668        C669   1.399       .  A
C668        H679   1.084       .  S
C669        C670   1.403       .  A
C669        H680   1.084       .  S
C670        C671   1.402       .  A
C671        C672   1.404       .  A
C671        H681   1.084       .  S
C672        C673   1.404       .  A
C673        H682   1.084       .  S
C674        C675   1.405       .  A
C674        H683   1.084       .  S
C675        C676   1.406       .  A
C676        H684   1.084       .  S
C685        C686   1.398       .  A
C685        C690   1.403       .  A
C685        H701   1.084       .  S
C686        C687   1.403       .  A
C686        H702   1.084       .  S
C687        C697   1.401       .  A
C687        C688   1.411       .  A
C688        C694   1.413       .  A
C688        C689   1.413       .  A
C689        C691   1.411       .  A
C689        C690   1.412       .  A
C690        C698   1.403       .  A
C691        C700   1.405       .  A
C691        C692   1.405       .  A
C692        C693   1.401       .  A
C692        H703   1.084       .  S
C693        C694   1.404       .  A
C693        H704   1.084       .  S
C694        C695   1.406       .  A
C695        C696   1.404       .  A
C695        H705   1.084       .  S
C696        C697   1.402       .  A
C697        H706   1.082       .  S
C698        C699   1.407       .  A
C698        H707   1.084       .  S
C699        C700   1.410       .  A
C700        H708   1.084       .  S
C709        H710   1.112       .  S
C709        C715   1.531       .  S
C709        C714   1.531       .  S
C709        C713   1.533       .  S
C711        H712   1.109       .  S
C711        C717   1.540       .  S
C711        C716   1.548       .  S
C711        C718   1.548       .  S
C713        C716   1.379       .  D
C713       C1026   1.484       .  S
C714        C717   1.375       .  D
C714       C1050   1.476       .  S
C715        C718   1.379       .  D
C715       C1002   1.479       .  S
C716        C957   1.499       .  S
C717        C981   1.492       .  S
C718        C930   1.501       .  S
C719        H720   1.110       .  S
C719        C725   1.541       .  S
C719        C724   1.541       .  S
C719        C723   1.541       .  S
C721        H722   1.112       .  S
C721        C727   1.529       .  S
C721        C726   1.524       .  S
C721        C728   1.528       .  S
C723        C726   1.374       .  D
C723        C882   1.485       .  S
C724        C727   1.378       .  D
C724        C858   1.489       .  S
C725        C728   1.376       .  D
C725        C909   1.492       .  S
C726        C810   1.474       .  S
C727        C786   1.475       .  S
C728        C834   1.472       .  S
O729        C745   1.277       .  A
O729      Zn1089   2.032       .  S
C730        O746   1.275       .  A
C730        O743   1.272       .  A
C730        C789   1.476       .  S
O731        C744   1.276       .  A
O731       Cd738   2.075       .  S
O732        C750   1.273       .  A
O732       Cd741   2.058   1_556  S
O733        C747   1.275       .  A
O734        C745   1.275       .  A
O734       Cd737   2.069       .  S
Zn735      O1083   2.030   1_545  S
Zn735       O748   2.010   1_554  S
Zn735       O740   1.943   1_554  S
O736        C747   1.274       .  A
O736      Cd1095   2.065       .  S
Cd737       O739   2.075   1_554  S
Cd737      O1094   1.997       .  S
Cd738      O1096   2.078   1_545  S
Cd738       O740   2.006       .  S
O739        C749   1.275       .  A
O740      Cd1091   1.998   1_546  S
Cd741      O1090   2.056   1_545  S
Cd741       O743   2.060       .  S
O742        C749   1.273       .  A
O742      Cd1092   2.069       .  S
C744        O748   1.275       .  A
C744        C933   1.477       .  S
C745        C813   1.482       .  S
C747        C837   1.475       .  S
C749        C954   1.477       .  S
C750        O751   1.278       .  A
C750        C978   1.477       .  S
O752        C768   1.275       .  A
O752      Zn1112   2.032   1_545  S
C753        O769   1.276       .  A
C753        O766   1.276       .  A
C753       C1029   1.480       .  S
O754        C767   1.276       .  A
O755        C773   1.273       .  A
O755       Cd764   2.060       .  S
O756        C770   1.274       .  A
O757        C768   1.273       .  A
O757       Cd760   2.055       .  S
Zn758      O1106   2.033       .  S
Zn758       O771   2.027       .  S
O759        C770   1.277       .  A
O759      Cd1118   2.077   1_545  S
Cd760       O762   2.068       .  S
Cd761      O1128   2.078   1_545  S
Cd761       O763   2.005       .  S
O762        C772   1.274       .  A
O763      Cd1118   2.000   1_545  S
Cd764      O1113   2.069       .  S
Cd764       O766   2.084       .  S
Cd764      O1117   1.999       .  S
O765        C772   1.275       .  A
C767        O771   1.276       .  A
C767        C906   1.478       .  S
C768       C1053   1.483       .  S
C770       C1005   1.477       .  S
C772        C861   1.477       .  S
C773        O774   1.275       .  A
C773        C885   1.472       .  S
O774      Cd1115   2.075       .  S
C775        C776   1.399       .  A
C775        C780   1.404       .  A
C775        H791   1.084       .  S
C776        C777   1.403       .  A
C776        H792   1.084       .  S
C777        C787   1.402       .  A
C777        C778   1.412       .  A
C778        C784   1.412       .  A
C778        C779   1.410       .  A
C779        C781   1.412       .  A
C779        C780   1.411       .  A
C780        C788   1.403       .  A
C781        C790   1.402       .  A
C781        C782   1.403       .  A
C782        C783   1.398       .  A
C782        H793   1.084       .  S
C783        C784   1.402       .  A
C783        H794   1.084       .  S
C784        C785   1.400       .  A
C785        C786   1.401       .  A
C785        H795   1.085       .  S
C786        C787   1.404       .  A
C787        H796   1.084       .  S
C788        C789   1.407       .  A
C788        H797   1.084       .  S
C789        C790   1.405       .  A
C790        H798   1.084       .  S
C799        C800   1.398       .  A
C799        C804   1.403       .  A
C799       H1169   1.083       .  S
C800        C801   1.402       .  A
C800        H816   1.084       .  S
C801        C811   1.401       .  A
C801        C802   1.413       .  A
C802        C808   1.412       .  A
C802        C803   1.411       .  A
C803        C805   1.411       .  A
C803        C804   1.412       .  A
C804        C812   1.403       .  A
C805        C814   1.403       .  A
C805        C806   1.404       .  A
C806        C807   1.399       .  A
C806        H817   1.084       .  S
C807        C808   1.403       .  A
C807        H818   1.084       .  S
C808        C809   1.402       .  A
C809        C810   1.403       .  A
C809        H819   1.085       .  S
C810        C811   1.401       .  A
C811        H820   1.084       .  S
C812        C813   1.407       .  A
C812       H1175   1.084       .  S
C813        C814   1.408       .  A
C814        H822   1.084       .  S
H815       C1153   1.083   1_545  S
H821       C1166   1.084       .  S
C823        C824   1.397       .  A
C823        C828   1.403       .  A
C824        C825   1.402       .  A
C824        H840   1.084       .  S
C825        C835   1.399       .  A
C825        C826   1.412       .  A
C826        C832   1.412       .  A
C826        C827   1.409       .  A
C827        C829   1.411       .  A
C827        C828   1.411       .  A
C828        C836   1.400       .  A
C829        C838   1.401       .  A
C829        C830   1.404       .  A
C830        C831   1.399       .  A
C830        H841   1.084       .  S
C831        C832   1.403       .  A
C831        H842   1.084       .  S
C832        C833   1.401       .  A
C833        C834   1.402       .  A
C833        H843   1.085       .  S
C834        C835   1.401       .  A
C835        H844   1.084       .  S
C836        C837   1.405       .  A
C836        H845   1.084       .  S
C837        C838   1.406       .  A
C838        H846   1.084       .  S
C847        C848   1.398       .  A
C847        C852   1.403       .  A
C847        H863   1.084       .  S
C848        C849   1.403       .  A
C848        H864   1.084       .  S
C849        C859   1.399       .  A
C849        C850   1.410       .  A
C850        C856   1.412       .  A
C850        C851   1.411       .  A
C851        C853   1.411       .  A
C851        C852   1.412       .  A
C852        C860   1.401       .  A
C853        C862   1.404       .  A
C853        C854   1.404       .  A
C854        C855   1.400       .  A
C854        H865   1.084       .  S
C855        C856   1.404       .  A
C855        H866   1.084       .  S
C856        C857   1.404       .  A
C857        C858   1.406       .  A
C857        H867   1.084       .  S
C858        C859   1.407       .  A
C859        H868   1.083       .  S
C860        C861   1.405       .  A
C860        H869   1.084       .  S
C861        C862   1.407       .  A
C862        H870   1.084       .  S
C871        C872   1.399       .  A
C871        C876   1.403       .  A
C871        H887   1.084       .  S
C872        C873   1.403       .  A
C872        H888   1.084       .  S
C873        C883   1.403       .  A
C873        C874   1.413       .  A
C874        C880   1.409       .  A
C874        C875   1.410       .  A
C875        C877   1.413       .  A
C875        C876   1.411       .  A
C876        C884   1.400       .  A
C877        C886   1.403       .  A
C877        C878   1.403       .  A
C878        C879   1.398       .  A
C878        H889   1.084       .  S
C879        C880   1.403       .  A
C879        H890   1.084       .  S
C880        C881   1.399       .  A
C881        C882   1.407       .  A
C881        H891   1.082       .  S
C882        C883   1.404       .  A
C883        H892   1.084       .  S
C884        C885   1.405       .  A
C884        H893   1.085       .  S
C885        C886   1.404       .  A
C886        H894   1.084       .  S
C895        C896   1.399       .  A
C895        C900   1.404       .  A
C895        H911   1.084       .  S
C896        C897   1.403       .  A
C896        H912   1.084       .  S
C897        C907   1.403       .  A
C897        C898   1.412       .  A
C898        C904   1.412       .  A
C898        C899   1.413       .  A
C899        C901   1.412       .  A
C899        C900   1.410       .  A
C900        C908   1.402       .  A
C901        C910   1.405       .  A
C901        C902   1.404       .  A
C902        C903   1.400       .  A
C902        H913   1.084       .  S
C903        C904   1.404       .  A
C903        H914   1.084       .  S
C904        C905   1.405       .  A
C905        C906   1.407       .  A
C905        H915   1.084       .  S
C906        C907   1.406       .  A
C907        H916   1.084       .  S
C908        C909   1.408       .  A
C908        H917   1.083       .  S
C909        C910   1.406       .  A
C910        H918   1.084       .  S
C919        C920   1.400       .  A
C919        C924   1.404       .  A
C919        H935   1.083       .  S
C920        C921   1.404       .  A
C920        H936   1.084       .  S
C921        C931   1.403       .  A
C921        C922   1.409       .  A
C922        C928   1.409       .  A
C922        C923   1.411       .  A
C923        C925   1.411       .  A
C923        C924   1.412       .  A
C924        C932   1.405       .  A
C925        C934   1.400       .  A
C925        C926   1.403       .  A
C926        C927   1.397       .  A
C926        H937   1.084       .  S
C927        C928   1.403       .  A
C927        H938   1.084       .  S
C928        C929   1.401       .  A
C929        C930   1.405       .  A
C929        H939   1.073       .  S
C930        C931   1.412       .  A
C931        H940   1.081       .  S
C932        C933   1.407       .  A
C932        H941   1.084       .  S
C933        C934   1.406       .  A
C934        H942   1.084       .  S
C943        C944   1.398       .  A
C943        C948   1.403       .  A
C943        H959   1.084       .  S
C944        C945   1.403       .  A
C944        H960   1.084       .  S
C945        C955   1.401       .  A
C945        C946   1.412       .  A
C946        C952   1.411       .  A
C946        C947   1.412       .  A
C947        C949   1.411       .  A
C947        C948   1.409       .  A
C948        C956   1.400       .  A
C949        C958   1.406       .  A
C949        C950   1.404       .  A
C950        C951   1.401       .  A
C950        H961   1.084       .  S
C951        C952   1.405       .  A
C951        H962   1.083       .  S
C952        C953   1.406       .  A
C953        C954   1.408       .  A
C953        H963   1.084       .  S
C954        C955   1.404       .  A
C955        H964   1.084       .  S
C956        C957   1.404       .  A
C956        H965   1.073       .  S
C957        C958   1.411       .  A
C958        H966   1.083       .  S
C967        C968   1.399       .  A
C967        C972   1.404       .  A
C967        H983   1.084       .  S
C968        C969   1.403       .  A
C968        H984   1.084       .  S
C969        C979   1.404       .  A
C969        C970   1.412       .  A
C970        C976   1.411       .  A
C970        C971   1.412       .  A
C971        C973   1.412       .  A
C971        C972   1.410       .  A
C972        C980   1.402       .  A
C973        C982   1.404       .  A
C973        C974   1.403       .  A
C974        C975   1.399       .  A
C974        H985   1.084       .  S
C975        C976   1.404       .  A
C975        H986   1.084       .  S
C976        C977   1.403       .  A
C977        C978   1.407       .  A
C977        H987   1.084       .  S
C978        C979   1.405       .  A
C979        H988   1.084       .  S
C980        C981   1.408       .  A
C980        H989   1.081       .  S
C981        C982   1.406       .  A
C982        H990   1.084       .  S
C991        C992   1.397       .  A
C991        C996   1.403       .  A
C991       H1007   1.084       .  S
C992        C993   1.402       .  A
C992       H1008   1.084       .  S
C993       C1003   1.399       .  A
C993        C994   1.411       .  A
C994       C1000   1.412       .  A
C994        C995   1.410       .  A
C995        C997   1.411       .  A
C995        C996   1.412       .  A
C996       C1004   1.400       .  A
C997       C1006   1.404       .  A
C997        C998   1.404       .  A
C998        C999   1.400       .  A
C998       H1009   1.084       .  S
C999       C1000   1.403       .  A
C999       H1010   1.084       .  S
C1000      C1001   1.403       .  A
C1001      C1002   1.405       .  A
C1001      H1011   1.084       .  S
C1002      C1003   1.401       .  A
C1003      H1012   1.081       .  S
C1004      C1005   1.404       .  A
C1004      H1013   1.084       .  S
C1005      C1006   1.408       .  A
C1006      H1014   1.084       .  S
C1015      C1016   1.401       .  A
C1015      C1020   1.404       .  A
C1015      H1031   1.083       .  S
C1016      C1017   1.404       .  A
C1016      H1032   1.084       .  S
C1017      C1027   1.405       .  A
C1017      C1018   1.412       .  A
C1018      C1024   1.412       .  A
C1018      C1019   1.413       .  A
C1019      C1021   1.411       .  A
C1019      C1020   1.412       .  A
C1020      C1028   1.407       .  A
C1021      C1030   1.403       .  A
C1021      C1022   1.403       .  A
C1022      C1023   1.398       .  A
C1022      H1033   1.083       .  S
C1023      C1024   1.403       .  A
C1023      H1034   1.084       .  S
C1024      C1025   1.402       .  A
C1025      C1026   1.405       .  A
C1025      H1035   1.084       .  S
C1026      C1027   1.405       .  A
C1027      H1036   1.084       .  S
C1028      C1029   1.407       .  A
C1028      H1037   1.084       .  S
C1029      C1030   1.406       .  A
C1030      H1038   1.084       .  S
C1039      C1040   1.400       .  A
C1039      C1044   1.404       .  A
C1039      H1055   1.084       .  S
C1040      C1041   1.404       .  A
C1040      H1056   1.084       .  S
C1041      C1051   1.402       .  A
C1041      C1042   1.411       .  A
C1042      C1048   1.413       .  A
C1042      C1043   1.412       .  A
C1043      C1045   1.410       .  A
C1043      C1044   1.412       .  A
C1044      C1052   1.405       .  A
C1045      C1054   1.401       .  A
C1045      C1046   1.404       .  A
C1046      C1047   1.398       .  A
C1046      H1057   1.084       .  S
C1047      C1048   1.402       .  A
C1047      H1058   1.084       .  S
C1048      C1049   1.403       .  A
C1049      C1050   1.401       .  A
C1049      H1059   1.085       .  S
C1050      C1051   1.403       .  A
C1051      H1060   1.082       .  S
C1052      C1053   1.408       .  A
C1052      H1061   1.084       .  S
C1053      C1054   1.408       .  A
C1054      H1062   1.084       .  S
C1063      H1064   1.112       .  S
C1063      C1069   1.531       .  S
C1063      C1068   1.529       .  S
C1063      C1067   1.532       .  S
C1065      H1066   1.110       .  S
C1065      C1071   1.544       .  S
C1065      C1070   1.545       .  S
C1065      C1072   1.546       .  S
C1067      C1070   1.378       .  D
C1067      C1380   1.480       .  S
C1068      C1071   1.376       .  D
C1068      C1404   1.477       .  S
C1069      C1072   1.375       .  D
C1069      C1356   1.476       .  S
C1070      C1311   1.496       .  S
C1071      C1335   1.491       .  S
C1072      C1284   1.497       .  S
C1073      H1074   1.109       .  S
C1073      C1079   1.536       .  S
C1073      C1078   1.540       .  S
C1073      C1077   1.543       .  S
C1075      H1076   1.112       .  S
C1075      C1081   1.531       .  S
C1075      C1080   1.528       .  S
C1075      C1082   1.529       .  S
C1077      C1080   1.377       .  D
C1077      C1236   1.490       .  S
C1078      C1081   1.378       .  D
C1078      C1212   1.490       .  S
C1079      C1082   1.374       .  D
C1079      C1263   1.489       .  S
C1080      C1164   1.475       .  S
C1081      C1140   1.480       .  S
C1082      C1188   1.472       .  S
O1083      C1099   1.276       .  A
C1084      O1100   1.275       .  A
C1084      O1097   1.275       .  A
C1084      C1143   1.479       .  S
O1085      C1098   1.274       .  A
O1085     Cd1092   2.062       .  S
O1086      C1104   1.275       .  A
O1086     Cd1095   2.066   1_556  S
O1087      C1101   1.275       .  A
O1088      C1099   1.275       .  A
O1088     Cd1091   2.068       .  S
Zn1089     O1102   2.020   1_554  S
Zn1089     O1094   1.946       .  S
O1090      C1101   1.273       .  A
Cd1091     O1093   2.071   1_554  S
Cd1092     O1094   2.003   1_556  S
O1093      C1103   1.274       .  A
Cd1095     O1097   2.074       .  S
O1096      C1103   1.275       .  A
C1098      O1102   1.275       .  A
C1098      C1287   1.473       .  S
C1099      C1167   1.480       .  S
C1101      C1191   1.476       .  S
C1103      C1308   1.476       .  S
C1104      O1105   1.276       .  A
C1104      C1332   1.478       .  S
O1106      C1122   1.277       .  A
C1107      O1123   1.274       .  A
C1107      O1120   1.277       .  A
C1107      C1383   1.478       .  S
O1108      C1121   1.276       .  A
O1109      C1127   1.275       .  A
O1109     Cd1118   2.065       .  S
O1110      C1124   1.273       .  A
O1111      C1122   1.273       .  A
O1111     Cd1114   2.056       .  S
Zn1112     O1125   2.012       .  S
O1113      C1124   1.275       .  A
Cd1114     O1116   2.062       .  S
Cd1115     O1117   2.005       .  S
O1116      C1126   1.274       .  A
Cd1118     O1120   2.084       .  S
O1119      C1126   1.275       .  A
C1121      O1125   1.274       .  A
C1121      C1260   1.475       .  S
C1122      C1407   1.483       .  S
C1124      C1359   1.474       .  S
C1126      C1215   1.476       .  S
C1127      O1128   1.276       .  A
C1127      C1239   1.477       .  S
C1129      C1130   1.399       .  A
C1129      C1134   1.404       .  A
C1129      H1145   1.083       .  S
C1130      C1131   1.403       .  A
C1130      H1146   1.084       .  S
C1131      C1141   1.402       .  A
C1131      C1132   1.412       .  A
C1132      C1138   1.413       .  A
C1132      C1133   1.412       .  A
C1133      C1135   1.411       .  A
C1133      C1134   1.412       .  A
C1134      C1142   1.404       .  A
C1135      C1144   1.402       .  A
C1135      C1136   1.404       .  A
C1136      C1137   1.399       .  A
C1136      H1147   1.084       .  S
C1137      C1138   1.403       .  A
C1137      H1148   1.084       .  S
C1138      C1139   1.403       .  A
C1139      C1140   1.403       .  A
C1139      H1149   1.085       .  S
C1140      C1141   1.405       .  A
C1141      H1150   1.084       .  S
C1142      C1143   1.407       .  A
C1142      H1151   1.084       .  S
C1143      C1144   1.407       .  A
C1144      H1152   1.084       .  S
C1153      C1154   1.399       .  A
C1153      C1158   1.404       .  A
C1154      C1155   1.403       .  A
C1154      H1170   1.084       .  S
C1155      C1165   1.403       .  A
C1155      C1156   1.413       .  A
C1156      C1162   1.412       .  A
C1156      C1157   1.411       .  A
C1157      C1159   1.411       .  A
C1157      C1158   1.411       .  A
C1158      C1166   1.404       .  A
C1159      C1168   1.402       .  A
C1159      C1160   1.404       .  A
C1160      C1161   1.398       .  A
C1160      H1171   1.084       .  S
C1161      C1162   1.403       .  A
C1161      H1172   1.084       .  S
C1162      C1163   1.400       .  A
C1163      C1164   1.402       .  A
C1163      H1173   1.085       .  S
C1164      C1165   1.403       .  A
C1165      H1174   1.084       .  S
C1166      C1167   1.407       .  A
C1167      C1168   1.407       .  A
C1168      H1176   1.084       .  S
C1177      C1178   1.398       .  A
C1177      C1182   1.403       .  A
C1178      C1179   1.402       .  A
C1178      H1194   1.083       .  S
C1179      C1189   1.400       .  A
C1179      C1180   1.412       .  A
C1180      C1186   1.412       .  A
C1180      C1181   1.409       .  A
C1181      C1183   1.411       .  A
C1181      C1182   1.412       .  A
C1182      C1190   1.401       .  A
C1183      C1192   1.401       .  A
C1183      C1184   1.404       .  A
C1184      C1185   1.398       .  A
C1184      H1195   1.084       .  S
C1185      C1186   1.403       .  A
C1185      H1196   1.084       .  S
C1186      C1187   1.400       .  A
C1187      C1188   1.401       .  A
C1187      H1197   1.085       .  S
C1188      C1189   1.401       .  A
C1189      H1198   1.084       .  S
C1190      C1191   1.405       .  A
C1190      H1199   1.084       .  S
C1191      C1192   1.407       .  A
C1192      H1200   1.084       .  S
C1201      C1202   1.398       .  A
C1201      C1206   1.403       .  A
C1201      H1217   1.084       .  S
C1202      C1203   1.403       .  A
C1202      H1218   1.084       .  S
C1203      C1213   1.399       .  A
C1203      C1204   1.409       .  A
C1204      C1210   1.411       .  A
C1204      C1205   1.410       .  A
C1205      C1207   1.411       .  A
C1205      C1206   1.412       .  A
C1206      C1214   1.403       .  A
C1207      C1216   1.402       .  A
C1207      C1208   1.404       .  A
C1208      C1209   1.399       .  A
C1208      H1219   1.084       .  S
C1209      C1210   1.403       .  A
C1209      H1220   1.084       .  S
C1210      C1211   1.403       .  A
C1211      C1212   1.407       .  A
C1211      H1221   1.084       .  S
C1212      C1213   1.407       .  A
C1213      H1222   1.082       .  S
C1214      C1215   1.405       .  A
C1214      H1223   1.084       .  S
C1215      C1216   1.406       .  A
C1216      H1224   1.084       .  S
C1225      C1226   1.398       .  A
C1225      C1230   1.403       .  A
C1225      H1241   1.084       .  S
C1226      C1227   1.403       .  A
C1226      H1242   1.084       .  S
C1227      C1237   1.401       .  A
C1227      C1228   1.411       .  A
C1228      C1234   1.409       .  A
C1228      C1229   1.411       .  A
C1229      C1231   1.412       .  A
C1229      C1230   1.411       .  A
C1230      C1238   1.400       .  A
C1231      C1240   1.404       .  A
C1231      C1232   1.404       .  A
C1232      C1233   1.399       .  A
C1232      H1243   1.084       .  S
C1233      C1234   1.404       .  A
C1233      H1244   1.084       .  S
C1234      C1235   1.401       .  A
C1235      C1236   1.409       .  A
C1235      H1245   1.081       .  S
C1236      C1237   1.405       .  A
C1237      H1246   1.084       .  S
C1238      C1239   1.406       .  A
C1238      H1247   1.084       .  S
C1239      C1240   1.406       .  A
C1240      H1248   1.084       .  S
C1249      C1250   1.399       .  A
C1249      C1254   1.404       .  A
C1249      H1265   1.084       .  S
C1250      C1251   1.404       .  A
C1250      H1266   1.084       .  S
C1251      C1261   1.404       .  A
C1251      C1252   1.413       .  A
C1252      C1258   1.411       .  A
C1252      C1253   1.412       .  A
C1253      C1255   1.412       .  A
C1253      C1254   1.410       .  A
C1254      C1262   1.401       .  A
C1255      C1264   1.404       .  A
C1255      C1256   1.403       .  A
C1256      C1257   1.399       .  A
C1256      H1267   1.083       .  S
C1257      C1258   1.403       .  A
C1257      H1268   1.084       .  S
C1258      C1259   1.401       .  A
C1259      C1260   1.406       .  A
C1259      H1269   1.084       .  S
C1260      C1261   1.406       .  A
C1261      H1270   1.084       .  S
C1262      C1263   1.407       .  A
C1262      H1271   1.082       .  S
C1263      C1264   1.405       .  A
C1264      H1272   1.084       .  S
C1273      C1274   1.400       .  A
C1273      C1278   1.404       .  A
C1273      H1289   1.084       .  S
C1274      C1275   1.404       .  A
C1274      H1290   1.084       .  S
C1275      C1285   1.406       .  A
C1275      C1276   1.411       .  A
C1276      C1282   1.408       .  A
C1276      C1277   1.411       .  A
C1277      C1279   1.413       .  A
C1277      C1278   1.411       .  A
C1278      C1286   1.403       .  A
C1279      C1288   1.402       .  A
C1279      C1280   1.403       .  A
C1280      C1281   1.398       .  A
C1280      H1291   1.084       .  S
C1281      C1282   1.404       .  A
C1281      H1292   1.084       .  S
C1282      C1283   1.399       .  A
C1283      C1284   1.403       .  A
C1283      H1293   1.070       .  S
C1284      C1285   1.410       .  A
C1285      H1294   1.083       .  S
C1286      C1287   1.406       .  A
C1286      H1295   1.084       .  S
C1287      C1288   1.404       .  A
C1288      H1296   1.085       .  S
C1297      C1298   1.398       .  A
C1297      C1302   1.404       .  A
C1297      H1313   1.084       .  S
C1298      C1299   1.403       .  A
C1298      H1314   1.084       .  S
C1299      C1309   1.402       .  A
C1299      C1300   1.412       .  A
C1300      C1306   1.411       .  A
C1300      C1301   1.411       .  A
C1301      C1303   1.411       .  A
C1301      C1302   1.408       .  A
C1302      C1310   1.399       .  A
C1303      C1312   1.404       .  A
C1303      C1304   1.403       .  A
C1304      C1305   1.400       .  A
C1304      H1315   1.084       .  S
C1305      C1306   1.404       .  A
C1305      H1316   1.083       .  S
C1306      C1307   1.404       .  A
C1307      C1308   1.406       .  A
C1307      H1317   1.084       .  S
C1308      C1309   1.405       .  A
C1309      H1318   1.084       .  S
C1310      C1311   1.403       .  A
C1310      H1319   1.070       .  S
C1311      C1312   1.409       .  A
C1312      H1320   1.083       .  S
C1321      C1322   1.399       .  A
C1321      C1326   1.404       .  A
C1321      H1337   1.084       .  S
C1322      C1323   1.404       .  A
C1322      H1338   1.084       .  S
C1323      C1333   1.404       .  A
C1323      C1324   1.412       .  A
C1324      C1330   1.411       .  A
C1324      C1325   1.412       .  A
C1325      C1327   1.412       .  A
C1325      C1326   1.410       .  A
C1326      C1334   1.401       .  A
C1327      C1336   1.403       .  A
C1327      C1328   1.403       .  A
C1328      C1329   1.399       .  A
C1328      H1339   1.084       .  S
C1329      C1330   1.404       .  A
C1329      H1340   1.083       .  S
C1330      C1331   1.402       .  A
C1331      C1332   1.406       .  A
C1331      H1341   1.084       .  S
C1332      C1333   1.406       .  A
C1333      H1342   1.084       .  S
C1334      C1335   1.408       .  A
C1334      H1343   1.080       .  S
C1335      C1336   1.406       .  A
C1336      H1344   1.084       .  S
C1345      C1346   1.397       .  A
C1345      C1350   1.403       .  A
C1345      H1361   1.084       .  S
C1346      C1347   1.402       .  A
C1346      H1362   1.084       .  S
C1347      C1357   1.398       .  A
C1347      C1348   1.411       .  A
C1348      C1354   1.412       .  A
C1348      C1349   1.409       .  A
C1349      C1351   1.411       .  A
C1349      C1350   1.412       .  A
C1350      C1358   1.399       .  A
C1351      C1360   1.403       .  A
C1351      C1352   1.404       .  A
C1352      C1353   1.400       .  A
C1352      H1363   1.084   1_655  S
C1353      C1354   1.403       .  A
C1353      H1364   1.084       .  S
C1354      C1355   1.403       .  A
C1355      C1356   1.404       .  A
C1355      H1365   1.084       .  S
C1356      C1357   1.400       .  A
C1357      H1366   1.082       .  S
C1358      C1359   1.404       .  A
C1358      H1367   1.084       .  S
C1359      C1360   1.407       .  A
C1360      H1368   1.084       .  S
C1369      C1370   1.399       .  A
C1369      C1374   1.404       .  A
C1369      H1385   1.083       .  S
C1370      C1371   1.403       .  A
C1370      H1386   1.084       .  S
C1371      C1381   1.402       .  A
C1371      C1372   1.412       .  A
C1372      C1378   1.413       .  A
C1372      C1373   1.412       .  A
C1373      C1375   1.411       .  A
C1373      C1374   1.412       .  A
C1374      C1382   1.405       .  A
C1375      C1384   1.402       .  A
C1375      C1376   1.404       .  A
C1376      C1377   1.399       .  A
C1376      H1387   1.084       .  S
C1377      C1378   1.403       .  A
C1377      H1388   1.084       .  S
C1378      C1379   1.402       .  A
C1379      C1380   1.404       .  A
C1379      H1389   1.084       .  S
C1380      C1381   1.403       .  A
C1381      H1390   1.084       .  S
C1382      C1383   1.406       .  A
C1382      H1391   1.084       .  S
C1383      C1384   1.406       .  A
C1384      H1392   1.084       .  S
C1393      C1394   1.398       .  A
C1393      C1398   1.403       .  A
C1393      H1409   1.084       .  S
C1394      C1395   1.403       .  A
C1394      H1410   1.084       .  S
C1395      C1405   1.401       .  A
C1395      C1396   1.412       .  A
C1396      C1402   1.413       .  A
C1396      C1397   1.412       .  A
C1397      C1399   1.410       .  A
C1397      C1398   1.412       .  A
C1398      C1406   1.403       .  A
C1399      C1408   1.403       .  A
C1399      C1400   1.404       .  A
C1400      C1401   1.400       .  A
C1400      H1411   1.084       .  S
C1401      C1402   1.403       .  A
C1401      H1412   1.084       .  S
C1402      C1403   1.404       .  A
C1403      C1404   1.403       .  A
C1403      H1413   1.084       .  S
C1404      C1405   1.402       .  A
C1405      H1414   1.083       .  S
C1406      C1407   1.407       .  A
C1406      H1415   1.084       .  S
C1407      C1408   1.409       .  A
C1408      H1416   1.084       .  S
