geometry optimzed in LAMMPS
_audit_creation_date              2020-11-30 
_audit_creation_method            'lammps2cif' 
_symmetry_space_group_name_H-M    'P1' 
_symmetry_Int_Tables_number       1 
_symmetry_cell_setting            triclinic 
loop_ 
_symmetry_equiv_pos_as_xyz 
  x,y,z 
_cell_length_a                    30.62458934072455 
_cell_length_b                    30.760884887814708 
_cell_length_c                    30.697001760880482 
_cell_angle_alpha                 89.95274206004434 
_cell_angle_beta                  90.12086814675904 
_cell_angle_gamma                 90.16788897327392 
loop_ 
_atom_site_label 
_atom_site_type_symbol 
_atom_site_fract_x 
_atom_site_fract_y 
_atom_site_fract_z 
_atom_site_charge 
O1          O  0.14249256  0.76245383  0.51126579    -0.85620
O2          O  0.20174951  0.80920480  0.55909730    -0.82660
C3          C  0.23647566  0.82702391  0.57156775     0.97840
O4          O  0.27200998  0.82414759  0.54925005    -0.82700
O5          O  0.30556441  0.74197042  0.55029360    -0.85340
C6          C  0.29241656  0.70484421  0.56209592     1.02370
O7          O  0.26066533  0.68625031  0.54262043    -0.78110
O8          O  0.17693561  0.71682247  0.55008524    -0.78290
C9          C  0.14461898  0.74168950  0.54584428     1.02320
O10         O  0.18509920  0.79023910  0.43670028    -0.85620
O11         O  0.22897771  0.85168071  0.48616039    -0.82680
C12         C  0.25097565  0.85048901  0.45243857     0.97860
O13         O  0.27841832  0.82034014  0.44944439    -0.82710
O14         O  0.31036848  0.73757997  0.45591111    -0.85310
C15         C  0.29258003  0.70545375  0.43649170     1.02330
O16         O  0.25553679  0.69118418  0.44818592    -0.78130
O17         O  0.17034692  0.72101394  0.44985500    -0.78280
C18         C  0.16563308  0.75575133  0.42658558     1.02300
Cr19       Cr  0.19227391  0.80090551  0.49815909     1.93740
Cr20       Cr  0.28824675  0.78008221  0.50103058     1.93210
Cr21       Cr  0.21675503  0.70695333  0.49769060     1.39100
O22         O  0.23369801  0.76157372  0.49887675    -1.23370
O23         O  0.73157773  0.23867777  0.43886095    -0.85620
O24         O  0.79652547  0.28031181  0.48460651    -0.82660
C25         C  0.79494368  0.30223386  0.45087996     0.97840
O26         O  0.76550381  0.33067535  0.44851057    -0.82700
O27         O  0.68350143  0.36532228  0.45685302    -0.85340
C28         C  0.65099593  0.34795468  0.43766285     1.02370
O29         O  0.63599340  0.31156632  0.44988581    -0.78110
O30         O  0.66182767  0.22680283  0.45304905    -0.78290
C31         C  0.69544733  0.22256946  0.42845954     1.02320
O32         O  0.70453027  0.19873300  0.51463242    -0.85620
O33         O  0.75717053  0.25648464  0.56061130    -0.82680
C34         C  0.77613951  0.29143674  0.57059338     0.97860
O35         O  0.77254323  0.32602151  0.54728096    -0.82710
O36         O  0.68980210  0.36032586  0.55133692    -0.85310
C37         C  0.65205475  0.34830205  0.56324015     1.02330
O38         O  0.63201024  0.31792072  0.54363113    -0.78130
O39         O  0.66001845  0.23487540  0.55276343    -0.78280
C40         C  0.68518841  0.20282210  0.54977616     1.02300
Cr41       Cr  0.74490079  0.24611732  0.49970711     1.93740
Cr42       Cr  0.72666837  0.34232443  0.50100578     1.93210
Cr43       Cr  0.65085878  0.27350723  0.49988385     1.39100
O44         O  0.70655492  0.28855624  0.50042674    -1.23370
O45         O  0.80216447  0.75867651  0.49050856    -0.85620
O46         O  0.74589532  0.81085271  0.44434703    -0.82660
C47         C  0.71288422  0.83240688  0.43375566     0.97840
O48         O  0.67671265  0.82821680  0.45488097    -0.82700
O49         O  0.64084824  0.74496378  0.44861035    -0.85340
C50         C  0.65229799  0.70695566  0.43728664     1.02370
O51         O  0.68189771  0.68687107  0.45807884    -0.78110
O52         O  0.76564599  0.71472890  0.45144420    -0.78290
C53         C  0.79816453  0.73940526  0.45517856     1.02320
O54         O  0.76029714  0.78586094  0.56623046    -0.85620
O55         O  0.72084985  0.85147401  0.51977655    -0.82680
C56         C  0.69554056  0.85119626  0.55130248     0.97860
O57         O  0.66844558  0.82027205  0.55354419    -0.82710
O58         O  0.63332777  0.73815037  0.54354695    -0.85310
C59         C  0.65034033  0.70578629  0.56318498     1.02330
O60         O  0.68694843  0.69090350  0.55181320    -0.78130
O61         O  0.77183620  0.71641198  0.55092867    -0.78280
C62         C  0.77607984  0.74955132  0.57609413     1.02300
Cr63       Cr  0.75450458  0.79907627  0.50517561     1.93740
Cr64       Cr  0.65801423  0.78160777  0.50019636     1.93210
Cr65       Cr  0.72589405  0.70564617  0.50303238     1.39100
O66         O  0.71152673  0.76120820  0.50266871    -1.23370
O67         O  0.53195067  0.26113386  0.21206024    -0.85620
O68         O  0.48576281  0.19907654  0.25851892    -0.82660
C69         C  0.52152753  0.20103703  0.27722425     0.97840
O70         O  0.52555957  0.23119293  0.30480639    -0.82700
O71         O  0.51684938  0.31378614  0.33904564    -0.85340
C72         C  0.53549170  0.34625006  0.32096810     1.02370
O73         O  0.52292487  0.36008638  0.28437611    -0.78110
O74         O  0.51857010  0.33123517  0.20099393    -0.78290
C75         C  0.54270758  0.29737615  0.19640514     1.02320
O76         O  0.45593529  0.28891580  0.17449651    -0.85620
O77         O  0.40947737  0.23871184  0.23442408    -0.82680
C78         C  0.40050096  0.21876583  0.26914048     0.97860
O79         O  0.42487403  0.22304689  0.30332159    -0.82710
O80         O  0.42189067  0.30664673  0.33652876    -0.85310
C81         C  0.40993307  0.34415840  0.32410908     1.02330
O82         O  0.42922492  0.36343766  0.29295406    -0.78130
O83         O  0.41889244  0.33449392  0.21036265    -0.78280
C84         C  0.42108357  0.30869394  0.17884864     1.02300
Cr85       Cr  0.47078907  0.24933838  0.22224600     1.93740
Cr86       Cr  0.47228820  0.26960711  0.31786334     1.93210
Cr87       Cr  0.47230223  0.34386004  0.24787930     1.39100
O88         O  0.47169208  0.28867986  0.26382437    -1.23370
O89         O  0.74362120  0.58680123  0.21264311    -0.85620
O90         O  0.80181493  0.53964187  0.26311312    -0.82660
C91         C  0.79936653  0.57399329  0.28415743     0.97840
O92         O  0.76703381  0.57806330  0.30894995    -0.82700
O93         O  0.68385638  0.57063311  0.33889226    -0.85340
C94         C  0.65304470  0.59037523  0.31965897     1.02370
O95         O  0.64023393  0.57849949  0.28210903    -0.78110
O96         O  0.67359607  0.57500498  0.19809283    -0.78290
C97         C  0.70885841  0.59781867  0.19364329     1.02320
O98         O  0.71698842  0.51148812  0.17254731    -0.85620
O99         O  0.75973772  0.46449728  0.23661264    -0.82680
C100        C  0.77641498  0.45443821  0.27266788     0.97860
O101        O  0.77278280  0.47895367  0.30631296    -0.82710
O102        O  0.68857412  0.47674002  0.33483999    -0.85310
C103        C  0.65187427  0.46446439  0.32033488     1.02330
O104        O  0.63432294  0.48359255  0.28784931    -0.78130
O105        O  0.66752220  0.47528165  0.20507638    -0.78280
C106        C  0.69378198  0.47836862  0.17363324     1.02300
Cr107      Cr  0.75278971  0.52561270  0.22399919     1.93740
Cr108      Cr  0.72719651  0.52617843  0.31872264     1.93210
Cr109      Cr  0.65710480  0.52810366  0.24435216     1.39100
O110        O  0.71118123  0.52691329  0.26338595    -1.23370
O111        O  0.45495915  0.76121739  0.17028015    -0.85620
O112        O  0.41087992  0.80966020  0.23084251    -0.82660
C113        C  0.40198296  0.82940340  0.26535029     0.97840
O114        O  0.42612756  0.82631966  0.29951204    -0.82700
O115        O  0.42178664  0.74322574  0.33259445    -0.85340
C116        C  0.41069117  0.70522699  0.32096652     1.02370
O117        O  0.43061795  0.68577483  0.29043275    -0.78110
O118        O  0.41861273  0.71468113  0.20689481    -0.78290
C119        C  0.42113709  0.73923985  0.17414577     1.02320
O120        O  0.53188289  0.78850961  0.20796182    -0.85620
O121        O  0.48769226  0.85079778  0.25398910    -0.82680
C122        C  0.52230658  0.84854172  0.27483328     0.97860
O123        O  0.52563049  0.81782184  0.30177113    -0.82710
O124        O  0.51621187  0.73665020  0.33674908    -0.85310
C125        C  0.53637840  0.70560097  0.31850013     1.02330
O126        O  0.52462211  0.69160127  0.28144444    -0.78130
O127        O  0.51814824  0.71862200  0.19638091    -0.78280
C128        C  0.54135022  0.75301038  0.19040091     1.02300
Cr129      Cr  0.47137996  0.79998816  0.21854197     1.93740
Cr130      Cr  0.47240103  0.78000380  0.31442679     1.93210
Cr131      Cr  0.47294100  0.70594376  0.24462030     1.39100
O132        O  0.47226471  0.76091731  0.26031639    -1.23370
O133        O  0.21243416  0.46330181  0.21123503    -0.85620
O134        O  0.14972239  0.50966487  0.25545392    -0.82660
C135        C  0.15127622  0.47583542  0.27710860     0.97840
O136        O  0.18082767  0.47312533  0.30561058    -0.82700
O137        O  0.26343085  0.48185969  0.34039132    -0.85340
C138        C  0.29497174  0.46142735  0.32292324     1.02370
O139        O  0.30900558  0.47195039  0.28572659    -0.78110
O140        O  0.28269112  0.47588346  0.20052895    -0.78290
C141        C  0.24835580  0.45226007  0.19511787     1.02320
O142        O  0.24027446  0.53961813  0.17260681    -0.85620
O143        O  0.18971443  0.58516726  0.23143196    -0.82680
C144        C  0.16962065  0.59463680  0.26575599     0.97860
O145        O  0.17380403  0.57180132  0.30066160    -0.82710
O146        O  0.25732465  0.57605109  0.33381202    -0.85310
C147        C  0.29556217  0.58680837  0.32229552     1.02330
O148        O  0.31551561  0.56582168  0.29271513    -0.78130
O149        O  0.28835443  0.57431343  0.20903304    -0.78280
C150        C  0.26236098  0.57315871  0.17738851     1.02300
Cr151      Cr  0.20071585  0.52435601  0.22037153     1.93740
Cr152      Cr  0.22002618  0.52560303  0.31679995     1.93210
Cr153      Cr  0.29535389  0.52207696  0.24781324     1.39100
O154        O  0.23965907  0.52419746  0.26272840    -1.23370
O155        O  0.22842892  0.54136011  0.82575437    -0.85620
O156        O  0.18475803  0.58577468  0.76181007    -0.82660
C157        C  0.16896045  0.59648506  0.72570832     0.97840
O158        O  0.17299246  0.57224590  0.69188336    -0.82700
O159        O  0.25695752  0.57687295  0.66458908    -0.85340
C160        C  0.29354827  0.58927907  0.67887108     1.02370
O161        O  0.31157324  0.57073220  0.71129460    -0.78110
O162        O  0.27757616  0.57875435  0.79378843    -0.78290
C163        C  0.24963075  0.57571359  0.82375141     1.02320
O164        O  0.20599058  0.46468206  0.78545387    -0.85620
O165        O  0.14641843  0.50972413  0.73422160    -0.82680
C166        C  0.15116296  0.47495777  0.71445857     0.97860
O167        O  0.18303668  0.47296158  0.68897517    -0.82710
O168        O  0.26591445  0.48407270  0.66093428    -0.85310
C169        C  0.29689281  0.46503252  0.68067317     1.02330
O170        O  0.30897548  0.47688212  0.71827480    -0.78130
O171        O  0.27532165  0.48016167  0.80071011    -0.78280
C172        C  0.24157424  0.45533367  0.80372657     1.02300
Cr173      Cr  0.19390734  0.52534273  0.77430093     1.93740
Cr174      Cr  0.22039832  0.52644124  0.68003926     1.93210
Cr175      Cr  0.29013043  0.52667679  0.75496349     1.39100
O176        O  0.23603288  0.52605610  0.73548184    -1.23370
O177        O  0.45293054  0.85285846  0.74414642    -0.85620
O178        O  0.40920960  0.78932710  0.78925077    -0.82660
C179        C  0.39984024  0.75412768  0.80752553     0.97840
O180        O  0.42405249  0.72030028  0.80323066    -0.82700
O181        O  0.41999957  0.69195002  0.71799207    -0.85340
C182        C  0.40889631  0.70524648  0.68044567     1.02370
O183        O  0.42887377  0.73646967  0.66219708    -0.78110
O184        O  0.41793073  0.81819422  0.69479965    -0.78290
C185        C  0.41977759  0.84972725  0.72086727     1.02320
O186        O  0.53045014  0.81410963  0.76959962    -0.85620
O187        O  0.48614272  0.76462714  0.82930484    -0.82680
C188        C  0.52049085  0.74342322  0.82667489     0.97860
O189        O  0.52373003  0.71795765  0.79475439    -0.82710
O190        O  0.51439320  0.68737596  0.71151010    -0.85310
C191        C  0.53442451  0.70656856  0.68074777     1.02330
O192        O  0.52293151  0.74415372  0.66831400    -0.78130
O193        O  0.51703850  0.82731668  0.69984214    -0.78280
C194        C  0.54106305  0.83119897  0.73399523     1.02300
Cr195      Cr  0.46977529  0.80247023  0.78025195     1.93740
Cr196      Cr  0.47051423  0.70774165  0.75595549     1.93210
Cr197      Cr  0.47163936  0.78059728  0.68474493     1.39100
O198        O  0.47077445  0.76258684  0.73921143    -1.23370
O199        O  0.71565944  0.51208179  0.82561539    -0.85620
O200        O  0.76333402  0.46565045  0.76420218    -0.82660
C201        C  0.78176581  0.45640477  0.72877304     0.97840
O202        O  0.77643477  0.48046873  0.69465088    -0.82700
O203        O  0.69114218  0.47709978  0.66458559    -0.85340
C204        C  0.65399555  0.46498268  0.67837010     1.02370
O205        O  0.63558227  0.48431159  0.70978936    -0.78110
O206        O  0.66796959  0.47520362  0.79143837    -0.78290
C207        C  0.69447100  0.47783776  0.82263431     1.02320
O208        O  0.74150687  0.58772532  0.78521773    -0.85620
O209        O  0.80303072  0.54183469  0.73851749    -0.82680
C210        C  0.80116975  0.57612791  0.71732098     0.97860
O211        O  0.76892473  0.58012769  0.69198454    -0.82710
O212        O  0.68453604  0.57163473  0.66091341    -0.85310
C213        C  0.65245103  0.59029733  0.67955871     1.02330
O214        O  0.63946359  0.57785883  0.71656413    -0.78130
O215        O  0.67161966  0.57388582  0.79914266    -0.78280
C216        C  0.70567396  0.59812728  0.80211714     1.02300
Cr217      Cr  0.75311796  0.52683565  0.77586001     1.93740
Cr218      Cr  0.72929357  0.52732237  0.68115814     1.93210
Cr219      Cr  0.65717561  0.52775229  0.75333624     1.39100
O220        O  0.71208264  0.52715633  0.73566846    -1.23370
O221        O  0.53429579  0.23742789  0.76712561    -0.85620
O222        O  0.48803641  0.28409720  0.82875051    -0.82660
C223        C  0.52267553  0.30494072  0.82700226     0.97840
O224        O  0.52674303  0.33134318  0.79585725    -0.82700
O225        O  0.51816278  0.36517596  0.71327050    -0.85340
C226        C  0.53769523  0.34713033  0.68154281     1.02370
O227        O  0.52611068  0.30994610  0.66811061    -0.78110
O228        O  0.52087513  0.22580444  0.69700507    -0.78290
C229        C  0.54449674  0.22039197  0.73130645     1.02320
O230        O  0.45779201  0.19997363  0.73909222    -0.85620
O231        O  0.41136424  0.26016040  0.78860815    -0.82680
C232        C  0.40244720  0.29511495  0.80793961     0.97860
O233        O  0.42700072  0.32897399  0.80359419    -0.82710
O234        O  0.42369301  0.36065637  0.71953685    -0.85310
C235        C  0.41244798  0.34837176  0.68171725     1.02330
O236        O  0.43229416  0.31770056  0.66255486    -0.78130
O237        O  0.42123299  0.23535687  0.69252985    -0.78280
C238        C  0.42300472  0.20419415  0.71896544     1.02300
Cr239      Cr  0.47290051  0.24792705  0.77835953     1.93740
Cr240      Cr  0.47392518  0.34331390  0.75706496     1.93210
Cr241      Cr  0.47510384  0.27293780  0.68345019     1.39100
O242        O  0.47398630  0.28918596  0.73858020    -1.23370
O243        O  0.22057208  0.20628575  0.52348064    -0.85620
O244        O  0.18065251  0.27333491  0.56665617    -0.82660
C245        C  0.16350302  0.30917651  0.57523431     0.97840
O246        O  0.16960339  0.34215842  0.55031804    -0.82700
O247        O  0.25659276  0.36398469  0.55573395    -0.85340
C248        C  0.29377513  0.34942091  0.56618548     1.02370
O249        O  0.31057405  0.31753940  0.54604888    -0.78110
O250        O  0.27332780  0.23693945  0.55738196    -0.78290
C251        C  0.24395034  0.20816616  0.55643679     1.02320
O252        O  0.19819665  0.24342978  0.44577451    -0.85620
O253        O  0.14195479  0.29900450  0.48833796    -0.82680
C254        C  0.14748144  0.31930236  0.45371720     0.97860
O255        O  0.18041610  0.34373921  0.45184577    -0.82710
O256        O  0.26505198  0.36872348  0.46234270    -0.85310
C257        C  0.29365334  0.34745368  0.44147549     1.02330
O258        O  0.30341868  0.30895807  0.45225847    -0.78130
O259        O  0.26752280  0.22761617  0.45929436    -0.78280
C260        C  0.23307164  0.22439432  0.43551931     1.02300
Cr261      Cr  0.18808736  0.25811903  0.50607870     1.93740
Cr262      Cr  0.21865410  0.35116176  0.50508094     1.93210
Cr263      Cr  0.28529100  0.27400035  0.50384543     1.39100
O264        O  0.23182682  0.29523539  0.50454229    -1.23370
C265        C  0.31729839  0.37028252  0.60346229     0.02860
C266        C  0.29993705  0.40821923  0.62224203    -0.13290
C267        C  0.31850194  0.42702763  0.65964085     0.00360
C268        C  0.35574933  0.40756518  0.67820371    -0.11820
C269        C  0.37448103  0.36991164  0.65984362     0.02850
C270        C  0.35502810  0.35167087  0.62218447    -0.11240
H271        H  0.27081252  0.42259182  0.60835674     0.08450
H272        H  0.36990167  0.42150800  0.70740196     0.05970
H273        H  0.36829747  0.32214660  0.60838110     0.05820
C274        C  0.31542952  0.36780339  0.40286631     0.02860
C275        C  0.35230215  0.34817528  0.38345692    -0.13290
C276        C  0.37178561  0.36590762  0.34574879     0.00360
C277        C  0.35321755  0.40364155  0.32732533    -0.11820
C278        C  0.31595952  0.42361781  0.34556807     0.02850
C279        C  0.29782681  0.40568337  0.38370293    -0.11240
H280        H  0.36573296  0.31885022  0.39763041     0.08450
H281        H  0.36731523  0.41699593  0.29786825     0.05970
H282        H  0.26894198  0.42036614  0.39761905     0.05820
C283        C  0.63197184  0.42653016  0.65790439     0.02860
C284        C  0.59454900  0.40740861  0.67707980    -0.13290
C285        C  0.57547062  0.36937135  0.65956090     0.00360
C286        C  0.59402284  0.35117178  0.62161584    -0.11820
C287        C  0.63121944  0.36963594  0.60175681     0.02850
C288        C  0.64984925  0.40721982  0.62034016    -0.11240
H289        H  0.58104042  0.42137950  0.70646643     0.08450
H290        H  0.58001675  0.32181295  0.60795950     0.05970
H291        H  0.67874715  0.42131755  0.60567125     0.05820
C292        C  0.62831025  0.68469266  0.60131382     0.02860
C293        C  0.59113828  0.70313493  0.62091729    -0.13290
C294        C  0.57267541  0.68496796  0.65903491     0.00360
C295        C  0.59234220  0.64747154  0.67728409    -0.11820
C296        C  0.62980892  0.62827461  0.65832622     0.02850
C297        C  0.64694402  0.64710044  0.62023976    -0.11240
H298        H  0.57710229  0.73226939  0.60693703     0.08450
H299        H  0.57898387  0.63377093  0.70692234     0.05970
H300        H  0.67587249  0.63295296  0.60588116     0.05820
C301        C  0.37104479  0.68404278  0.65785715     0.02860
C302        C  0.35197129  0.70228080  0.61999391    -0.13290
C303        C  0.31441547  0.68351335  0.60040128     0.00360
C304        C  0.29652557  0.64579974  0.61939553    -0.11820
C305        C  0.31494027  0.62714125  0.65729163     0.02850
C306        C  0.35221926  0.64634493  0.67584558    -0.11240
H307        H  0.36581348  0.73172098  0.60636419     0.08450
H308        H  0.26741575  0.63154126  0.60521589     0.05970
H309        H  0.36606720  0.63237762  0.70516435     0.05820
C310        C  0.31676912  0.62567858  0.34336463     0.02860
C311        C  0.29742259  0.64570869  0.37995749    -0.13290
C312        C  0.31502071  0.68398774  0.39864502     0.00360
C313        C  0.35271623  0.70242045  0.37966797    -0.11820
C314        C  0.37273249  0.68338388  0.34285555     0.02850
C315        C  0.35468042  0.64472977  0.32545410    -0.11240
H316        H  0.26812238  0.63157415  0.39375899     0.08450
H317        H  0.36600634  0.73221959  0.39307219     0.05970
H318        H  0.36925462  0.63028444  0.29681461     0.05820
C319        C  0.63127018  0.68560453  0.39825527     0.02860
C320        C  0.64966679  0.64777983  0.37942570    -0.13290
C321        C  0.63189736  0.62884114  0.34123377     0.00360
C322        C  0.59465251  0.64804358  0.32239944    -0.11820
C323        C  0.57509116  0.68532131  0.34054081     0.02850
C324        C  0.59381607  0.70384431  0.37840779    -0.11240
H325        H  0.67870674  0.63375318  0.39382526     0.08450
H326        H  0.58088664  0.63394814  0.29309418     0.05970
H327        H  0.57952081  0.73291116  0.39215258     0.05820
C328        C  0.57353373  0.36858603  0.34229117     0.02860
C329        C  0.59248666  0.35105137  0.38012238    -0.13290
C330        C  0.63000588  0.36975498  0.39926463     0.00360
C331        C  0.64827210  0.40732972  0.37997728    -0.11820
C332        C  0.62997159  0.42610647  0.34191234     0.02850
C333        C  0.59250085  0.40634722  0.32357916    -0.11240
H334        H  0.57842902  0.32191116  0.39418049     0.08450
H335        H  0.67743744  0.42143725  0.39418263     0.05970
H336        H  0.57863697  0.41989780  0.29408246     0.05820
O337        O  0.64942779  0.04642466  0.75957321    -0.85620
O338        O  0.71106606  0.09285402  0.71231772    -0.82660
C339        C  0.74605012  0.10147226  0.69280003     0.97840
O340        O  0.77966529  0.07672460  0.69697333    -0.82700
O341        O  0.80964558  0.08005316  0.78221395    -0.85340
C342        C  0.79719449  0.09006889  0.82036655     1.02370
O343        O  0.76680865  0.06902736  0.83903780    -0.78110
O344        O  0.68463297  0.08079400  0.80830669    -0.78290
C345        C  0.65338509  0.07979243  0.78176594     1.02320
O346        O  0.68646817  0.97120279  0.73083989    -0.85620
O347        O  0.73439926  0.01579730  0.67041496    -0.82680
C348        C  0.75537520  0.98129320  0.67291410     0.97860
O349        O  0.78146076  0.97763169  0.70458650    -0.82710
O350        O  0.81459049  0.98576159  0.78758341    -0.85310
C351        C  0.79567781  0.96487886  0.81799631     1.02330
O352        O  0.75801827  0.97559357  0.83083319    -0.78130
O353        O  0.67409482  0.98215265  0.80123319    -0.78280
C354        C  0.66859655  0.96036084  0.76594453     1.02300
Cr355      Cr  0.69797912  0.03168113  0.72093832     1.93740
Cr356      Cr  0.79320868  0.03005430  0.74380402     1.93210
Cr357      Cr  0.72174908  0.02700459  0.81638820     1.39100
O358        O  0.73869606  0.02948874  0.76143175    -1.23370
C359        C  0.87514486  0.18453722  0.84400102     0.02860
C360        C  0.85591814  0.14725331  0.82534169    -0.13290
C361        C  0.81826350  0.12793252  0.84319978     0.00360
C362        C  0.79981348  0.14667802  0.88105617    -0.11820
C363        C  0.81812248  0.18448861  0.90029156     0.02850
C364        C  0.85600806  0.20274865  0.88145458    -0.11240
H365        H  0.87011060  0.13341092  0.79621417     0.08450
H366        H  0.77027793  0.13278033  0.89460001     0.05970
H367        H  0.87011411  0.23192662  0.89540136     0.05820
O368        O  0.03617973  0.31497674  0.73506194    -0.85620
O369        O  0.98924770  0.26567325  0.67497798    -0.82660
C370        C  0.02439370  0.24611560  0.67832089     0.97840
O371        O  0.02747181  0.21946653  0.70921491    -0.82700
O372        O  0.01872234  0.18739307  0.79122881    -0.85340
C373        C  0.03870820  0.20594264  0.82229631     1.02370
O374        O  0.02754147  0.24346115  0.83526712    -0.78110
O375        O  0.02291966  0.32780012  0.80490824    -0.78290
C376        C  0.04636435  0.33291225  0.77052414     1.02320
O377        O  0.95981939  0.35353647  0.76120498    -0.85620
O378        O  0.91333035  0.29145815  0.71471778    -0.82680
C379        C  0.90304043  0.25534996  0.69835857     0.97860
O380        O  0.92784722  0.22193241  0.70187242    -0.82710
O381        O  0.92486069  0.19234243  0.78519786    -0.85310
C382        C  0.91340779  0.20570590  0.82239916     1.02330
O383        O  0.93324870  0.23697135  0.84092697    -0.78130
O384        O  0.92355125  0.31934113  0.80919497    -0.78280
C385        C  0.92568644  0.35052190  0.78261611     1.02300
Cr386      Cr  0.97471655  0.30386255  0.72397138     1.93740
Cr387      Cr  0.97483280  0.20869471  0.74765879     1.93210
Cr388      Cr  0.97683176  0.28100136  0.81931769     1.39100
O389        O  0.97554344  0.26350280  0.76476710    -1.23370
O390        O  0.30637943  0.01694301  0.76928273    -0.85620
O391        O  0.24947187  0.96954052  0.71817527    -0.82660
C392        C  0.21399509  0.95624972  0.70221053     0.97840
O393        O  0.17853371  0.97838888  0.70586466    -0.82700
O394        O  0.14362954  0.97487057  0.78775588    -0.85340
C395        C  0.15650295  0.96254167  0.82496352     1.02370
O396        O  0.18827314  0.98154427  0.84385513    -0.78110
O397        O  0.27266505  0.97618924  0.81356667    -0.78290
C398        C  0.30432305  0.98114084  0.78778796     1.02320
O399        O  0.26233672  0.09153091  0.74384119    -0.85620
O400        O  0.22127681  0.04321467  0.67918136    -0.82680
C401        C  0.19859179  0.07628100  0.68125633     0.97860
O402        O  0.17060496  0.07751921  0.71111812    -0.82710
O403        O  0.13764354  0.06879588  0.79272023    -0.85310
C404        C  0.15473621  0.08778595  0.82531163     1.02330
O405        O  0.19138514  0.07582586  0.84048215    -0.78130
O406        O  0.27691550  0.07630808  0.81270711    -0.78280
C407        C  0.28080617  0.10112921  0.77905515     1.02300
Cr408      Cr  0.25724654  0.03034582  0.73020102     1.93740
Cr409      Cr  0.16105184  0.02497352  0.75027117     1.93210
Cr410      Cr  0.23151031  0.02743412  0.82444813     1.39100
O411        O  0.21535844  0.02719723  0.76931982    -1.23370
C412        C  0.13216508  0.12584692  0.84577665     0.02860
C413        C  0.09507772  0.14531258  0.82629766    -0.13290
C414        C  0.07642743  0.18354574  0.84386613     0.00360
C415        C  0.09524020  0.20172922  0.88157850    -0.11820
C416        C  0.13180897  0.18278672  0.90181787     0.02850
C417        C  0.14976669  0.14482552  0.88378460    -0.11240
H418        H  0.08157250  0.13150049  0.79674141     0.08450
H419        H  0.08153147  0.23118057  0.89511045     0.05970
H420        H  0.17843405  0.13066768  0.89879953     0.05820
O421        O  0.95958846  0.69930295  0.76016584    -0.85620
O422        O  0.91650528  0.76058564  0.71182071    -0.82660
C423        C  0.90702923  0.79587472  0.69372779     0.97840
O424        O  0.93106057  0.83005083  0.69789473    -0.82700
O425        O  0.92603547  0.86193453  0.78126280    -0.85340
C426        C  0.91317747  0.84899026  0.81825088     1.02370
O427        O  0.93179402  0.81746909  0.83745398    -0.78110
O428        O  0.92156410  0.73481999  0.80604339    -0.78290
C429        C  0.92513583  0.70246931  0.78118909     1.02320
O430        O  0.03728380  0.73950057  0.73673530    -0.85620
O431        O  0.99346153  0.78523736  0.67330862    -0.82680
C432        C  0.02727352  0.80739334  0.67563237     0.97860
O433        O  0.03081658  0.83269883  0.70766040    -0.82710
O434        O  0.02046466  0.86475260  0.79036066    -0.85310
C435        C  0.03874627  0.84626674  0.82268048     1.02330
O436        O  0.02588385  0.80936732  0.83592194    -0.78130
O437        O  0.02091331  0.72530017  0.80569517    -0.78280
C438        C  0.04555147  0.72089225  0.77215231     1.02300
Cr439      Cr  0.97682012  0.74895603  0.72329312     1.93740
Cr440      Cr  0.97709863  0.84404960  0.74527879     1.93210
Cr441      Cr  0.97510799  0.77266827  0.81798934     1.39100
O442        O  0.97626178  0.78971499  0.76328404    -1.23370
C443        C  0.13398815  0.92446897  0.84635295     0.02860
C444        C  0.15055315  0.90605571  0.88510539    -0.13290
C445        C  0.13136418  0.86866281  0.90426996     0.00360
C446        C  0.09439406  0.85004511  0.88394897    -0.11820
C447        C  0.07668097  0.86785675  0.84521911     0.02850
C448        C  0.09678106  0.90508374  0.82698877    -0.11240
H449        H  0.17938337  0.92033965  0.89980255     0.08450
H450        H  0.07990176  0.82105422  0.89787119     0.05970
H451        H  0.08389080  0.91851193  0.79699827     0.05820
O452        O  0.30456403  0.79588929  0.01252548    -0.85620
O453        O  0.25052552  0.74114393  0.05909945    -0.82660
C454        C  0.21727398  0.72011534  0.07079808     0.97840
O455        O  0.18059755  0.72412356  0.05011796    -0.82700
O456        O  0.14139316  0.80610227  0.05607563    -0.85340
C457        C  0.15305511  0.84356293  0.06897019     1.02370
O458        O  0.18445185  0.86352252  0.05069020    -0.78110
O459        O  0.26973069  0.83616922  0.05597060    -0.78290
C460        C  0.30266065  0.81273121  0.04911429     1.02320
O461        O  0.25957328  0.77101050  0.93793428    -0.85620
O462        O  0.22417450  0.70247689  0.98403020    -0.82680
C463        C  0.20051964  0.70392036  0.95142150     0.97860
O464        O  0.17146515  0.73282260  0.95093049    -0.82710
O465        O  0.13613476  0.81386840  0.96106461    -0.85310
C466        C  0.15259540  0.84767388  0.94323434     1.02330
O467        O  0.18808593  0.86387512  0.95689925    -0.78130
O468        O  0.27317756  0.83944024  0.95517267    -0.78280
C469        C  0.27605018  0.80711015  0.92876693     1.02300
Cr470      Cr  0.25707621  0.75511673  0.99853053     1.93740
Cr471      Cr  0.16056044  0.77042907  0.00472816     1.93210
Cr472      Cr  0.22818556  0.84746754  0.00484713     1.39100
O473        O  0.21384308  0.79191825  0.00325506    -1.23370
O474        O  0.90613030  0.76512560  0.29238314    -0.85620
O475        O  0.95134273  0.70187699  0.24720187    -0.82660
C476        C  0.91864239  0.70352917  0.22330343     0.97840
O477        O  0.91541166  0.73516738  0.19747399    -0.82700
O478        O  0.92590382  0.81764557  0.16399310    -0.85340
C479        C  0.90551725  0.84899055  0.18171681     1.02370
O480        O  0.91560936  0.86199185  0.21953058    -0.78110
O481        O  0.92147556  0.83435733  0.30516653    -0.78290
C482        C  0.89756538  0.80037972  0.31113974     1.02320
O483        O  0.98421679  0.79153181  0.33070617    -0.85620
O484        O  0.02841562  0.74045460  0.27161507    -0.82680
C485        C  0.03877648  0.72278911  0.23615644     0.97860
O486        O  0.01438004  0.72634972  0.20215729    -0.82710
O487        O  0.02012400  0.80905175  0.17040693    -0.85310
C488        C  0.03118169  0.84699625  0.18184850     1.02330
O489        O  0.01001919  0.86717485  0.21118237    -0.78130
O490        O  0.02012987  0.83829884  0.29433526    -0.78280
C491        C  0.01872390  0.81229360  0.32591294     1.02300
Cr492      Cr  0.96739384  0.75244215  0.28276924     1.93740
Cr493      Cr  0.96867817  0.77314221  0.18690796     1.93210
Cr494      Cr  0.96670166  0.84706743  0.25670830     1.39100
O495        O  0.96768885  0.79181763  0.24106477    -1.23370
C496        C  0.12992264  0.86493656  0.10659046     0.02860
C497        C  0.09159784  0.84719836  0.12520259    -0.13290
C498        C  0.07051417  0.86754690  0.16094972     0.00360
C499        C  0.08883653  0.90610928  0.17822940    -0.11820
C500        C  0.12737705  0.92414152  0.16069610     0.02850
C501        C  0.14705342  0.90343221  0.12469715    -0.11240
H502        H  0.07823915  0.81738501  0.11190901     0.08450
H503        H  0.07384580  0.92137469  0.20621758     0.05970
H504        H  0.17674109  0.91694982  0.11111294     0.05820
O505        O  0.64971177  0.78099156  0.98053034    -0.85620
O506        O  0.71415461  0.73704122  0.93690030    -0.82660
C507        C  0.75043212  0.72062537  0.92772136     0.97840
O508        O  0.78428008  0.72620886  0.95184638    -0.82700
O509        O  0.81099882  0.81101179  0.94592919    -0.85340
C510        C  0.79657901  0.84761503  0.93379732     1.02370
O511        O  0.76446302  0.86523783  0.95304867    -0.78110
O512        O  0.68264960  0.83014167  0.94369919    -0.78290
C513        C  0.65132943  0.80377252  0.94712129     1.02320
O514        O  0.69027004  0.75870590  0.05761703    -0.85620
O515        O  0.74113398  0.69978199  0.01444977    -0.82680
C516        C  0.76103470  0.70503377  0.04931013     0.97860
O517        O  0.78703173  0.73672567  0.05075838    -0.82710
O518        O  0.81521388  0.81970026  0.03979256    -0.85310
C519        C  0.79475902  0.84967335  0.05940562     1.02330
O520        O  0.75695295  0.86109053  0.04728074    -0.78130
O521        O  0.67428702  0.82732780  0.04274357    -0.78280
C522        C  0.67147351  0.79350618  0.06730614     1.02300
Cr523      Cr  0.70141705  0.74687391  0.99728651     1.93740
Cr524      Cr  0.79600232  0.77413239  0.99699892     1.93210
Cr525      Cr  0.72070576  0.84268854  0.99663748     1.39100
O526        O  0.74035927  0.78904273  0.99697940    -1.23370
C527        C  0.86852688  0.87074730  0.15808071     0.02860
C528        C  0.85161699  0.85288694  0.11918999    -0.13290
C529        C  0.81485280  0.87115409  0.09835223     0.00360
C530        C  0.79537468  0.90838503  0.11670123    -0.11820
C531        C  0.81188481  0.92759554  0.15505238     0.02850
C532        C  0.84856401  0.90845738  0.17537156    -0.11240
H533        H  0.86615156  0.82370511  0.10593547     0.08450
H534        H  0.76688762  0.92235430  0.10116738     0.05970
H535        H  0.86095351  0.92239264  0.20535204     0.05820
O536        O  0.30122768  0.26274234  0.98688027    -0.85620
O537        O  0.24053440  0.31188438  0.94231992    -0.82660
C538        C  0.20502240  0.32983169  0.93264104     0.97840
O539        O  0.17078964  0.32538513  0.95635695    -0.82700
O540        O  0.14052775  0.24210117  0.95060073    -0.85340
C541        C  0.15271428  0.20430382  0.94008745     1.02370
O542        O  0.18276869  0.18492523  0.96092679    -0.78110
O543        O  0.26576892  0.21557359  0.95045014    -0.78290
C544        C  0.29733144  0.24183939  0.95250843     1.02320
O545        O  0.26251572  0.28801747  0.06391400    -0.85620
O546        O  0.21476199  0.34948152  0.01929423    -0.82680
C547        C  0.19462577  0.34517672  0.05403000     0.97860
O548        O  0.16686923  0.31501563  0.05537208    -0.82710
O549        O  0.13407607  0.23357928  0.04416956    -0.85310
C550        C  0.15275813  0.20317681  0.06501895     1.02330
O551        O  0.19060848  0.19040564  0.05462959    -0.78130
O552        O  0.27531354  0.21876389  0.04941881    -0.78280
C553        C  0.28004061  0.25247395  0.07368805     1.02300
Cr554      Cr  0.25227499  0.30057615  0.00308873     1.93740
Cr555      Cr  0.15637305  0.27818139  0.00168158     1.93210
Cr556      Cr  0.22778997  0.20570068  0.00377251     1.39100
O557        O  0.21112346  0.26046021  0.00272670    -1.23370
O558        O  0.22114875  0.00744278  0.32487105    -0.85620
O559        O  0.26062721  0.96239672  0.25900674    -0.82660
C560        C  0.27515510  0.95205246  0.22239655     0.97840
O561        O  0.27125115  0.97735188  0.18939418    -0.82700
O562        O  0.18605253  0.97423323  0.16579564    -0.85340
C563        C  0.14945480  0.96274489  0.18095152     1.02370
O564        O  0.13240213  0.98270746  0.21298982    -0.78110
O565        O  0.16829852  0.97347236  0.29448844    -0.78290
C566        C  0.19726014  0.97489967  0.32366874     1.02320
O567        O  0.24552481  0.08317565  0.28585935    -0.85620
O568        O  0.30113846  0.03887319  0.23160235    -0.82680
C569        C  0.29606190  0.07418047  0.21249960     0.97860
O570        O  0.26366151  0.07656757  0.18743818    -0.82710
O571        O  0.17972519  0.06743920  0.16104143    -0.85310
C572        C  0.15055490  0.08809950  0.18157952     1.02330
O573        O  0.13957586  0.07713801  0.21980333    -0.78130
O574        O  0.17568727  0.07147309  0.30188858    -0.78280
C575        C  0.21143333  0.09321321  0.30604263     1.02300
Cr576      Cr  0.25443936  0.02293872  0.27272360     1.93740
Cr577      Cr  0.22457109  0.02400910  0.17935836     1.93210
Cr578      Cr  0.15725097  0.02618772  0.25603794     1.39100
O579        O  0.21085612  0.02469208  0.23523101    -1.23370
O580        O  0.91262622  0.31634302  0.26224894    -0.85620
O581        O  0.95748657  0.27324425  0.32685292    -0.82660
C582        C  0.92345757  0.25163609  0.32445662     0.97840
O583        O  0.92122449  0.22359318  0.29461195    -0.82700
O584        O  0.93049297  0.18988126  0.21221039    -0.85340
C585        C  0.91113686  0.20768306  0.18002518     1.02370
O586        O  0.92338186  0.24435783  0.16575836    -0.78110
O587        O  0.92751906  0.32904151  0.19283271    -0.78290
C588        C  0.90308280  0.33343112  0.22642971     1.02320
O589        O  0.98885423  0.35617311  0.23749946    -0.85620
O590        O  0.03452101  0.29618529  0.28677713    -0.82680
C591        C  0.04341444  0.26276590  0.30834402     0.97860
O592        O  0.02010393  0.22801490  0.30421443    -0.82710
O593        O  0.02517883  0.19484159  0.21992539    -0.85310
C594        C  0.03676055  0.20671643  0.18209346     1.02330
O595        O  0.01734800  0.23742743  0.16240679    -0.78130
O596        O  0.02659408  0.32135933  0.19121338    -0.78280
C597        C  0.02340224  0.35294782  0.21709463     1.02300
Cr598      Cr  0.97346914  0.30781042  0.27580054     1.93740
Cr599      Cr  0.97437162  0.21229694  0.25649892     1.93210
Cr600      Cr  0.97379743  0.28211145  0.18148972     1.39100
O601        O  0.97392736  0.26622535  0.23687269    -1.23370
C602        C  0.12969893  0.12668805  0.16050923     0.02860
C603        C  0.14792427  0.14483506  0.12246557    -0.13290
C604        C  0.13040784  0.18257058  0.10318397     0.00360
C605        C  0.09327072  0.20178535  0.12224789    -0.11820
C606        C  0.07445914  0.18452567  0.16057402     0.02850
C607        C  0.09310665  0.14697827  0.17934557    -0.11240
H608        H  0.17663127  0.13003902  0.10830578     0.08450
H609        H  0.07990079  0.23113725  0.10806771     0.05970
H610        H  0.07924109  0.13360588  0.20890914     0.05820
O611        O  0.71072053  0.31405015  0.93430357    -0.85620
O612        O  0.64699627  0.26715761  0.97836088    -0.82660
C613        C  0.65022043  0.24225620  0.94675857     0.97840
O614        O  0.68266380  0.21737116  0.94550439    -0.82700
O615        O  0.76552903  0.18786538  0.95817342    -0.85340
C616        C  0.79644630  0.20676277  0.93805111     1.02370
O617        O  0.80883042  0.24470254  0.94882769    -0.78110
O618        O  0.77894364  0.32935990  0.95270276    -0.78290
C619        C  0.74606302  0.33365885  0.92695383     1.02320
O620        O  0.73213905  0.35520260  0.01274390    -0.85620
O621        O  0.68273056  0.29459742  0.05550828    -0.82680
C622        C  0.66541672  0.25911345  0.06607872     0.97860
O623        O  0.67130557  0.22421678  0.04387152    -0.82710
O624        O  0.75580385  0.19490799  0.05195634    -0.85310
C625        C  0.79348001  0.20765230  0.06335052     1.02330
O626        O  0.81243770  0.23838004  0.04311551    -0.78130
O627        O  0.77887217  0.32089308  0.05149248    -0.78280
C628        C  0.75326864  0.35270288  0.04734351     1.02300
Cr629      Cr  0.69609109  0.30482507  0.99516295     1.93740
Cr630      Cr  0.71981297  0.20966813  0.99981124     1.93210
Cr631      Cr  0.79142189  0.28229473  0.99897276     1.39100
O632        O  0.73673628  0.26452820  0.99808081    -1.23370
O633        O  0.70048725  0.08513992  0.28587369    -0.85620
O634        O  0.64194585  0.05067323  0.22956340    -0.82660
C635        C  0.64984241  0.08460639  0.20862736     0.97840
O636        O  0.68254907  0.08475418  0.18383964    -0.82700
O637        O  0.76608892  0.06857254  0.15700184    -0.85340
C638        C  0.79346307  0.09089812  0.17879458     1.02370
O639        O  0.80166853  0.08161353  0.21810893    -0.78110
O640        O  0.76934767  0.06959662  0.30107591    -0.78290
C641        C  0.73512886  0.09287832  0.30613291     1.02320
O642        O  0.71999217  0.00437523  0.31833161    -0.85620
O643        O  0.67542310  0.96763093  0.25121276    -0.82680
C644        C  0.65664648  0.96168830  0.21560166     0.97860
O645        O  0.66371296  0.98756927  0.18355703    -0.82710
O646        O  0.75095942  0.97560407  0.16221819    -0.85310
C647        C  0.78918528  0.96598727  0.17490291     1.02330
O648        O  0.80814139  0.98818637  0.20441028    -0.78130
O649        O  0.77331572  0.97359824  0.28506456    -0.78280
C650        C  0.74418903  0.97237527  0.31394801     1.02300
Cr651      Cr  0.68733590  0.02685729  0.26849441     1.93740
Cr652      Cr  0.71661660  0.02904874  0.17506578     1.93210
Cr653      Cr  0.78467844  0.02830298  0.25090397     1.39100
O654        O  0.73054366  0.02833601  0.23087229    -1.23370
C655        C  0.81550993  0.12924072  0.15802325     0.02860
C656        C  0.85315844  0.14834313  0.17682995    -0.13290
C657        C  0.87253508  0.18594262  0.15862799     0.00360
C658        C  0.85324542  0.20440842  0.12090152    -0.11820
C659        C  0.81541025  0.18628630  0.10166212     0.02850
C660        C  0.79727028  0.14846090  0.12043980    -0.11240
H661        H  0.86702446  0.13425161  0.20607604     0.08450
H662        H  0.86716504  0.23365932  0.10694745     0.05970
H663        H  0.76800181  0.13444115  0.10633516     0.05820
C664        C  0.87468137  0.87045861  0.83921090     0.02860
C665        C  0.85539128  0.90792570  0.82078021    -0.13290
C666        C  0.81749562  0.92656154  0.83900454     0.00360
C667        C  0.79907654  0.90707669  0.87651877    -0.11820
C668        C  0.81764011  0.86970486  0.89560697     0.02850
C669        C  0.85554610  0.85198752  0.87666985    -0.11240
H670        H  0.86937661  0.92210468  0.79165416     0.08450
H671        H  0.76967629  0.92061071  0.89052371     0.05970
H672        H  0.86977613  0.82296062  0.89067431     0.05820
C673        C  0.23070648  0.19383767  0.39881051    -0.05740
C674        C  0.26059694  0.15976524  0.39611650    -0.33170
C675        C  0.25413648  0.12655957  0.36596009     0.36080
C676        C  0.21677203  0.12678141  0.33880122    -0.06090
C677        C  0.18743333  0.16092660  0.34074421    -0.33060
C678        C  0.19484625  0.19481893  0.36970185     0.35990
H679        H  0.28816820  0.15801804  0.41821925     0.16360
O680        O  0.28341556  0.09287928  0.36458426    -0.60560
H681        H  0.15969368  0.16213620  0.31877374     0.16380
O682        O  0.16739910  0.22951862  0.36834506    -0.60660
H683        H  0.18139688  0.24953387  0.34720002     0.43370
H684        H  0.30869646  0.10416887  0.34784062     0.43330
C685        C  0.12013084  0.30742063  0.41555830    -0.05740
C686        C  0.08491542  0.27844425  0.42208963    -0.33170
C687        C  0.06268822  0.25953991  0.38706067     0.36080
C688        C  0.07454457  0.27015331  0.34422440    -0.06090
C689        C  0.10924702  0.29964444  0.33748011    -0.33060
C690        C  0.13238257  0.31789510  0.37264441     0.35990
H691        H  0.07482118  0.26965617  0.45474851     0.16360
O692        O  0.02722408  0.23345706  0.39518906    -0.60560
H693        H  0.11841423  0.30864099  0.30459256     0.16380
O694        O  0.16952032  0.34185797  0.36487802    -0.60660
H695        H  0.16098786  0.36570581  0.34496926     0.43370
H696        H  0.03910569  0.20356191  0.39705532     0.43330
C697        C  0.06169918  0.26275546  0.65280120    -0.05740
C698        C  0.05266276  0.28886538  0.61615913    -0.33170
C699        C  0.08583604  0.31092101  0.59421121     0.36080
C700        C  0.12924546  0.30666119  0.60820048    -0.06090
C701        C  0.13820874  0.28242842  0.64609772    -0.33060
C702        C  0.10490089  0.26037166  0.66824590     0.35990
H703        H  0.01953399  0.29193147  0.60407276     0.16360
O704        O  0.07606765  0.33223674  0.55616294    -0.60560
H705        H  0.17171677  0.27786909  0.65656026     0.16380
O706        O  0.11487417  0.23740094  0.70524166    -0.60660
H707        H  0.12370924  0.20820121  0.69488361     0.43370
H708        H  0.07189212  0.36302596  0.56466891     0.43330
C709        C  0.23305671  0.17912831  0.59310981    -0.05740
C710        C  0.26572463  0.15520822  0.61359974    -0.33170
C711        C  0.25468544  0.12169775  0.64238744     0.36080
C712        C  0.21032028  0.11358817  0.65331573    -0.06090
C713        C  0.17788238  0.13958681  0.63516203    -0.33060
C714        C  0.18872144  0.17102836  0.60407647     0.35990
H715        H  0.29965321  0.16043183  0.60505377     0.16360
O716        O  0.28767626  0.09671108  0.65926787    -0.60560
H717        H  0.14386772  0.13367703  0.64290740     0.16380
O718        O  0.15544330  0.19293554  0.58385324    -0.60660
H719        H  0.14477810  0.17312969  0.56065213     0.43370
H720        H  0.29446209  0.07508649  0.63632811     0.43330
C721        C  0.38478627  0.17908253  0.73458847    -0.05740
C722        C  0.39213591  0.14611232  0.76572940    -0.33170
C723        C  0.35762663  0.12457536  0.78607528     0.36080
C724        C  0.31448652  0.13493935  0.77488994    -0.06090
C725        C  0.30687346  0.16919673  0.74524778    -0.33060
C726        C  0.34155634  0.19110371  0.72504662     0.35990
H727        H  0.42506720  0.13651239  0.77431423     0.16360
O728        O  0.36660271  0.09021809  0.81312921    -0.60560
H729        H  0.27376286  0.17697983  0.73548580     0.16380
O730        O  0.33272125  0.22439859  0.69665971    -0.60660
H731        H  0.33057135  0.21051517  0.66759703     0.43370
H732        H  0.36741955  0.10280297  0.84284491     0.43330
C733        C  0.61782825  0.24769138  0.91181700    -0.05740
C734        C  0.63106041  0.26425955  0.87128360    -0.33170
C735        C  0.60142124  0.28676600  0.84434337     0.36080
C736        C  0.55760150  0.29150195  0.85742761    -0.06090
C737        C  0.54437826  0.27307576  0.89721558    -0.33060
C738        C  0.57379891  0.25121281  0.92392134     0.35990
H739        H  0.66484555  0.26147521  0.86169442     0.16360
O740        O  0.61525428  0.30277248  0.80501818    -0.60560
H741        H  0.51059842  0.27511457  0.90751483     0.16380
O742        O  0.55964431  0.23508493  0.96310876    -0.60660
H743        H  0.55272423  0.20407791  0.95749657     0.43370
H744        H  0.62212694  0.33380991  0.81046531     0.43330
C745        C  0.57817333  0.18694068  0.73411022    -0.05740
C746        C  0.61524099  0.19489923  0.76011723    -0.33170
C747        C  0.63933271  0.16053576  0.77787256     0.36080
C748        C  0.62632809  0.11745686  0.76958645    -0.06090
C749        C  0.59004795  0.10981865  0.74229290    -0.33060
C750        C  0.56645605  0.14399171  0.72427240     0.35990
H751        H  0.62425991  0.22789319  0.76834937     0.16360
O752        O  0.67578657  0.16945631  0.80234476    -0.60560
H753        H  0.57961513  0.07694421  0.73487066     0.16380
O754        O  0.52934766  0.13493781  0.70081594    -0.60660
H755        H  0.53896848  0.13374387  0.67002066     0.43370
H756        H  0.66495131  0.17338954  0.83250138     0.43330
C757        C  0.36995971  0.29118408  0.84297107    -0.05740
C758        C  0.38431273  0.29885173  0.88553563    -0.33170
C759        C  0.36229011  0.28077731  0.92104314     0.36080
C760        C  0.32425029  0.25519990  0.91461035    -0.06090
C761        C  0.30878784  0.24908213  0.87196551    -0.33060
C762        C  0.33135597  0.26686941  0.83637364     0.35990
H763        H  0.41473780  0.31606483  0.89121987     0.16360
O764        O  0.37883052  0.28785987  0.96201611    -0.60560
H765        H  0.27894401  0.23095854  0.86620166     0.16380
O766        O  0.31634506  0.25907101  0.79502812    -0.60660
H767        H  0.29739290  0.28419597  0.78794360     0.43370
H768        H  0.39776977  0.26246363  0.96811291     0.43330
C769        C  0.70872666  0.63306820  0.83320560    -0.05740
C770        C  0.71089719  0.62046435  0.87681404    -0.33170
C771        C  0.73103454  0.64716434  0.90723369     0.36080
C772        C  0.74795135  0.68776939  0.89440880    -0.06090
C773        C  0.74463449  0.70108814  0.85093448    -0.33060
C774        C  0.72569833  0.67354870  0.82011433     0.35990
H775        H  0.69948524  0.58857709  0.88682751     0.16360
O776        O  0.73134055  0.63463254  0.95012781    -0.60560
H777        H  0.75525606  0.73333825  0.84132571     0.16380
O778        O  0.72499347  0.68569185  0.77714495    -0.60660
H779        H  0.69638156  0.70006633  0.77280977     0.43370
H780        H  0.76020212  0.62082962  0.95472816     0.43330
C781        C  0.83335809  0.61064078  0.72892697    -0.05740
C782        C  0.87235804  0.59718617  0.74917178    -0.33170
C783        C  0.90020758  0.62674028  0.76969682     0.36080
C784        C  0.88986677  0.67118455  0.77075507    -0.06090
C785        C  0.85120575  0.68525364  0.75012539    -0.33060
C786        C  0.82325173  0.65534552  0.72889973     0.35990
H787        H  0.88111221  0.56306704  0.74981632     0.16360
O788        O  0.93849825  0.61195260  0.78758051    -0.60560
H789        H  0.84367758  0.71961593  0.74875583     0.16380
O790        O  0.78594277  0.67002598  0.70914361    -0.60660
H791        H  0.79410469  0.67486575  0.67827178     0.43370
H792        H  0.93175313  0.60650247  0.81869448     0.43330
C793        C  0.88803415  0.37792142  0.76929673    -0.05740
C794        C  0.84509903  0.36337558  0.77586858    -0.33170
C795        C  0.80971866  0.38576266  0.75737586     0.36080
C796        C  0.81666269  0.42371901  0.73242416    -0.06090
C797        C  0.85950380  0.43745395  0.72467609    -0.33060
C798        C  0.89488703  0.41530386  0.74305444     0.35990
H799        H  0.83894416  0.33419201  0.79468913     0.16360
O800        O  0.76813404  0.37129932  0.76522758    -0.60560
H801        H  0.86552098  0.46745757  0.70710313     0.16380
O802        O  0.93616690  0.43107850  0.73561409    -0.60660
H803        H  0.94261697  0.45035520  0.76071249     0.43370
H804        H  0.75985349  0.35432580  0.73902162     0.43330
C805        C  0.70801766  0.44036867  0.84952638    -0.05740
C806        C  0.70157664  0.39801730  0.83397515    -0.33170
C807        C  0.71970821  0.36249637  0.85590771     0.36080
C808        C  0.74350347  0.36877633  0.89475297    -0.06090
C809        C  0.75157049  0.41108884  0.90930357    -0.33060
C810        C  0.73420302  0.44673221  0.88707144     0.35990
H811        H  0.68341542  0.39247685  0.80415396     0.16360
O812        O  0.71284757  0.32151522  0.83984963    -0.60560
H813        H  0.76863750  0.41648534  0.93980534     0.16380
O814        O  0.74136601  0.48760436  0.90355654    -0.60660
H815        H  0.77141238  0.49548043  0.89439244     0.43370
H816        H  0.74131192  0.31232599  0.82763932     0.43330
C817        C  0.55604481  0.75461410  0.85773224    -0.05740
C818        C  0.54384563  0.77374010  0.89748261    -0.33170
C819        C  0.57449799  0.79345314  0.92470214     0.36080
C820        C  0.61874759  0.79470080  0.91287485    -0.06090
C821        C  0.63156006  0.77535771  0.87335372    -0.33060
C822        C  0.60054765  0.75508381  0.84594982     0.35990
H823        H  0.50993755  0.77403306  0.90740372     0.16360
O824        O  0.56104287  0.81018081  0.96384965    -0.60560
H825        H  0.66580724  0.77432492  0.86463288     0.16380
O826        O  0.61385361  0.73734969  0.80724924    -0.60660
H827        H  0.62139945  0.70680061  0.81424972     0.43370
H828        H  0.55583018  0.84149008  0.95822612     0.43330
C829        C  0.57792270  0.86114591  0.73623070    -0.05740
C830        C  0.61059268  0.85343856  0.76777867    -0.33170
C831        C  0.63914338  0.88645806  0.78050315     0.36080
C832        C  0.63527493  0.92732240  0.76116569    -0.06090
C833        C  0.60363168  0.93468476  0.72878279    -0.33060
C834        C  0.57520849  0.90186315  0.71601052     0.35990
H835        H  0.61284282  0.82217780  0.78373775     0.16360
O836        O  0.67135248  0.87819500  0.81047781    -0.60560
H837        H  0.60133559  0.96614996  0.71297135     0.16380
O838        O  0.54297863  0.91093655  0.68628973    -0.60660
H839        H  0.55594903  0.90424132  0.65750069     0.43370
H840        H  0.65741745  0.88253900  0.83927761     0.43330
C841        C  0.30719998  0.80463350  0.89332183    -0.05740
C842        C  0.35076207  0.80001629  0.90614717    -0.33170
C843        C  0.37982695  0.77623193  0.88081963     0.36080
C844        C  0.36634272  0.75865149  0.84062404    -0.06090
C845        C  0.32307957  0.76445080  0.82694731    -0.33060
C846        C  0.29335169  0.78653822  0.85338516     0.35990
H847        H  0.36142300  0.81166007  0.93777333     0.16360
O848        O  0.42229917  0.77255415  0.89445760    -0.60560
H849        H  0.31277360  0.75305432  0.79513669     0.16380
O850        O  0.25017011  0.78785402  0.84148348    -0.60660
H851        H  0.24690143  0.81510399  0.82455132     0.43370
H852        H  0.42380925  0.74410018  0.90958451     0.43330
C853        C  0.38368493  0.88041163  0.72932952    -0.05740
C854        C  0.35102937  0.86917971  0.75969240    -0.33170
C855        C  0.32605953  0.90130251  0.78079273     0.36080
C856        C  0.33291596  0.94555732  0.77107379    -0.06090
C857        C  0.36447172  0.95624302  0.73923686    -0.33060
C858        C  0.38946986  0.92432270  0.71867020     0.35990
H859        H  0.34604104  0.83555937  0.76859170     0.16360
O860        O  0.29513028  0.88900805  0.81059344    -0.60560
H861        H  0.37013604  0.98981021  0.73010093     0.16380
O862        O  0.42113065  0.93660641  0.68958045    -0.60660
H863        H  0.40723426  0.93385403  0.66049179     0.43370
H864        H  0.31060971  0.88857767  0.83900140     0.43330
C865        C  0.12561923  0.43691650  0.72919826    -0.05740
C866        C  0.09049160  0.44421467  0.75783290    -0.33170
C867        C  0.06800965  0.40976490  0.77700341     0.36080
C868        C  0.07973684  0.36688453  0.76705668    -0.06090
C869        C  0.11612782  0.35932818  0.74023972    -0.33060
C870        C  0.13905057  0.39392669  0.72128923     0.35990
H871        H  0.07994472  0.47698134  0.76523400     0.16360
O872        O  0.03175376  0.41841283  0.80166060    -0.60560
H873        H  0.12524696  0.32636552  0.73208111     0.16380
O874        O  0.17460495  0.38529297  0.69565794    -0.60660
H875        H  0.16279658  0.38219938  0.66571371     0.43370
H876        H  0.04252404  0.41978739  0.83211248     0.43330
C877        C  0.13908236  0.63282023  0.72825838    -0.05740
C878        C  0.15269261  0.66940836  0.75234920    -0.33170
C879        C  0.12212863  0.69660749  0.77199459     0.36080
C880        C  0.07761930  0.68684089  0.76817737    -0.06090
C881        C  0.06411645  0.65055423  0.74387771    -0.33060
C882        C  0.09444488  0.62405852  0.72334335     0.35990
H883        H  0.18717356  0.67544492  0.75779465     0.16360
O884        O  0.13582491  0.73317939  0.79366661    -0.60560
H885        H  0.02963345  0.64405533  0.73894962     0.16380
O886        O  0.08029363  0.58768860  0.70160183    -0.60660
H887        H  0.07806919  0.59667613  0.67064741     0.43370
H888        H  0.13975130  0.72388535  0.82437247     0.43330
C889        C  0.23669584  0.61205707  0.85251665    -0.05740
C890        C  0.26829657  0.63892315  0.87112324    -0.33170
C891        C  0.25657996  0.66935518  0.90284304     0.36080
C892        C  0.21203882  0.67573429  0.91411832    -0.06090
C893        C  0.18010888  0.65094208  0.89322864    -0.33060
C894        C  0.19214859  0.61832064  0.86379421     0.35990
H895        H  0.30245629  0.63445215  0.86319333     0.16360
O896        O  0.28928910  0.69202625  0.92333347    -0.60560
H897        H  0.14605043  0.65481680  0.90185607     0.16380
O898        O  0.15994983  0.59239476  0.84659353    -0.60660
H899        H  0.15422663  0.56989705  0.86904910     0.43370
H900        H  0.30057248  0.67219364  0.94619610     0.43330
C901        C  0.20850039  0.36283032  0.89915271    -0.05740
C902        C  0.23102888  0.40081590  0.91083977    -0.33170
C903        C  0.24674187  0.42907920  0.87913761     0.36080
C904        C  0.23915483  0.41989351  0.83502342    -0.06090
C905        C  0.21688724  0.38158389  0.82319200    -0.33060
C906        C  0.20211220  0.35267305  0.85510589     0.35990
H907        H  0.23766054  0.40785757  0.94483544     0.16360
O908        O  0.26654328  0.46713750  0.89168833    -0.60560
H909        H  0.20996992  0.37480421  0.78923088     0.16380
O910        O  0.18270536  0.31426103  0.84308872    -0.60660
H911        H  0.15122534  0.32109556  0.83995272     0.43370
H912        H  0.29813518  0.46031120  0.89320455     0.43330
C913        C  0.06001886  0.38078780  0.23112091    -0.05740
C914        C  0.06648114  0.38710806  0.27635116    -0.33170
C915        C  0.09812922  0.41575550  0.29221812     0.36080
C916        C  0.12292606  0.43990756  0.26282415    -0.06090
C917        C  0.11553447  0.43475043  0.21758170    -0.33060
C918        C  0.08458821  0.40535626  0.20158842     0.35990
H919        H  0.04549890  0.37149023  0.29991783     0.16360
O920        O  0.10199838  0.42245628  0.33623416    -0.60560
H921        H  0.13236883  0.45523304  0.19431294     0.16380
O922        O  0.07456784  0.40587883  0.15794384    -0.60660
H923        H  0.07675733  0.37548402  0.14770678     0.43370
H924        H  0.08000298  0.44494545  0.34332678     0.43330
C925        C  0.21074541  0.36931377  0.09265939    -0.05740
C926        C  0.24574966  0.39877748  0.08698848    -0.33170
C927        C  0.26362822  0.42151809  0.12208719     0.36080
C928        C  0.24566093  0.41630348  0.16367620    -0.06090
C929        C  0.21342791  0.38409607  0.17021864    -0.33060
C930        C  0.19619799  0.36045192  0.13521179     0.35990
H931        H  0.25910529  0.40496276  0.05491733     0.16360
O932        O  0.29544237  0.45202991  0.11446347    -0.60560
H933        H  0.19952182  0.37929192  0.20231745     0.16380
O934        O  0.16575271  0.32867239  0.14325889    -0.60660
H935        H  0.13792758  0.34001915  0.13151618     0.43370
H936        H  0.32338167  0.43681048  0.12018127     0.43330
C937        C  0.25098642  0.61186265  0.15174898    -0.05740
C938        C  0.20708235  0.61816388  0.13914230    -0.33170
C939        C  0.19430397  0.65510246  0.11579873     0.36080
C940        C  0.22585299  0.68589758  0.10367960    -0.06090
C941        C  0.26960340  0.67983209  0.11764577    -0.33060
C942        C  0.28211386  0.64339509  0.14147289     0.35990
H943        H  0.18240155  0.59429264  0.14739720     0.16360
O944        O  0.15121932  0.66047188  0.10481412    -0.60560
H945        H  0.29516887  0.70232984  0.10838741     0.16380
O946        O  0.32532243  0.63736296  0.15167762    -0.60660
H947        H  0.33071949  0.65573505  0.17767184     0.43370
H948        H  0.14653376  0.64190329  0.07882181     0.43330
C949        C  0.13541306  0.62710527  0.26048808    -0.05740
C950        C  0.14037500  0.66849815  0.27817589    -0.33170
C951        C  0.11120308  0.70139396  0.26666302     0.36080
C952        C  0.07595583  0.69280976  0.23811973    -0.06090
C953        C  0.07192171  0.65163145  0.21943654    -0.33060
C954        C  0.10164546  0.61897546  0.23010988     0.35990
H955        H  0.16749017  0.67563541  0.29978929     0.16360
O956        O  0.11718482  0.74199727  0.28366765    -0.60560
H957        H  0.04465984  0.64414042  0.19813198     0.16380
O958        O  0.09688976  0.57865091  0.21156259    -0.60660
H959        H  0.10868914  0.58158848  0.18164183     0.43370
H960        H  0.13464174  0.75796670  0.26165734     0.43330
C961        C  0.38558359  0.74870796  0.14298506    -0.05740
C962        C  0.39776022  0.75269670  0.09925176    -0.33170
C963        C  0.37246893  0.77611270  0.06970621     0.36080
C964        C  0.33311804  0.79603122  0.08304975    -0.06090
C965        C  0.32005599  0.79128996  0.12676454    -0.33060
C966        C  0.34593498  0.76765869  0.15662271     0.35990
H967        H  0.42871560  0.73959214  0.08838692     0.16360
O968        O  0.38675870  0.77922431  0.02746215    -0.60560
H969        H  0.28936000  0.80494750  0.13753627     0.16380
O970        O  0.33338462  0.76534199  0.19939325    -0.60660
H971        H  0.31557818  0.73845926  0.20153968     0.43370
H972        H  0.40322863  0.80699011  0.02605344     0.43330
C973        C  0.57404690  0.75691373  0.15662063    -0.05740
C974        C  0.56438880  0.78643170  0.12299209    -0.33170
C975        C  0.59720071  0.80319901  0.09660286     0.36080
C976        C  0.64033337  0.78955329  0.10295111    -0.06090
C977        C  0.65010691  0.76027250  0.13704105    -0.33060
C978        C  0.61715787  0.74401703  0.16391525     0.35990
H979        H  0.53121842  0.79783279  0.11832676     0.16360
O980        O  0.58630811  0.83045120  0.06292649    -0.60560
H981        H  0.68321243  0.74873878  0.14168584     0.16380
O982        O  0.62750339  0.71706849  0.19799981    -0.60660
H983        H  0.62567526  0.68722470  0.18591547     0.43370
H984        H  0.58868602  0.86018979  0.07516988     0.43330
C985        C  0.62080603  0.92999882  0.21754391    -0.05740
C986        C  0.63085459  0.88696329  0.22944500    -0.33170
C987        C  0.60003993  0.86057281  0.25076678     0.36080
C988        C  0.55842750  0.87718936  0.26071100    -0.06090
C989        C  0.54804079  0.91965382  0.24738985    -0.33060
C990        C  0.57870235  0.94592252  0.22621891     0.35990
H991        H  0.66364739  0.87473794  0.22464819     0.16360
O992        O  0.61050581  0.81835548  0.26052887    -0.60560
H993        H  0.51582126  0.93267840  0.25371685     0.16380
O994        O  0.56861204  0.98861805  0.21825130    -0.60660
H995        H  0.55887226  0.98944220  0.18744696     0.43370
H996        H  0.62450285  0.81958572  0.28965876     0.43330
C997        C  0.30445354  0.91526150  0.22330592    -0.05740
C998        C  0.34828391  0.92440157  0.21530134    -0.33170
C999        C  0.38059398  0.89851208  0.23349082     0.36080
C1000       C  0.36920922  0.86261186  0.25975575    -0.06090
C1001       C  0.32531889  0.85182962  0.26574463    -0.33060
C1002       C  0.29278878  0.87833176  0.24806914     0.35990
H1003       H  0.35763890  0.95351242  0.19764446     0.16360
O1004       O  0.42350240  0.90813952  0.22492816    -0.60560
H1005       H  0.31635402  0.82245276  0.28312224     0.16380
O1006       O  0.24959088  0.86851621  0.25519291    -0.60660
H1007       H  0.24521267  0.87054042  0.28710982     0.43370
H1008       H  0.42933136  0.89565254  0.19572806     0.43330
C1009       C  0.70318802  0.44398206  0.14089016    -0.05740
C1010       C  0.71899897  0.45762011  0.10010920    -0.33170
C1011       C  0.73814482  0.42845152  0.07105951     0.36080
C1012       C  0.74256880  0.38429539  0.08218014    -0.06090
C1013       C  0.72632481  0.37006965  0.12271324    -0.33060
C1014       C  0.70636624  0.39952461  0.15182741     0.35990
H1015       H  0.71736431  0.49163109  0.09097718     0.16360
O1016       O  0.75181196  0.44339375  0.03120710    -0.60560
H1017       H  0.72760357  0.33587522  0.13110916     0.16380
O1018       O  0.69163377  0.38484844  0.19132871    -0.60660
H1019       H  0.66171867  0.37376809  0.18563947     0.43370
H1020       H  0.78333542  0.44988752  0.03492075     0.43330
C1021       C  0.71402957  0.63271038  0.16064502    -0.05740
C1022       C  0.74979491  0.66149392  0.16486632    -0.33170
C1023       C  0.76626325  0.68462855  0.12915573     0.36080
C1024       C  0.74646415  0.68000350  0.08813932    -0.06090
C1025       C  0.70866767  0.65367385  0.08466037    -0.33060
C1026       C  0.69232711  0.63049502  0.12040859     0.35990
H1027       H  0.76687138  0.66405092  0.19554186     0.16360
O1028       O  0.80216813  0.71083152  0.13466023    -0.60560
H1029       H  0.69172897  0.65048481  0.05380711     0.16380
O1030       O  0.65738100  0.60314143  0.11456613    -0.60660
H1031       H  0.63139304  0.62085734  0.12182998     0.43370
H1032       H  0.82766795  0.69124586  0.13174347     0.43330
C1033       C  0.83016115  0.60916327  0.27264555    -0.05740
C1034       C  0.87089942  0.59690773  0.25577773    -0.33170
C1035       C  0.89797692  0.62701067  0.23529708     0.36080
C1036       C  0.88480183  0.67054339  0.23098320    -0.06090
C1037       C  0.84399883  0.68311172  0.24744368    -0.33060
C1038       C  0.81687744  0.65284178  0.26875090     0.35990
H1039       H  0.88160814  0.56340494  0.25788770     0.16360
O1040       O  0.93836568  0.61397754  0.22118476    -0.60560
H1041       H  0.83404606  0.71675448  0.24533700     0.16380
O1042       O  0.77673368  0.66577557  0.28350573    -0.60660
H1043       H  0.78158216  0.67447360  0.31423178     0.43370
H1044       H  0.93449664  0.60730062  0.18981477     0.43330
C1045       C  0.80843902  0.42014688  0.27004887    -0.05740
C1046       C  0.85156252  0.43392013  0.26431243    -0.33170
C1047       C  0.88153046  0.40729779  0.24348059     0.36080
C1048       C  0.86893191  0.36558270  0.22942722    -0.06090
C1049       C  0.82607738  0.35114880  0.23640114    -0.33060
C1050       C  0.79560834  0.37853440  0.25599377     0.35990
H1051       H  0.86132813  0.46659658  0.27342777     0.16360
O1052       O  0.92394733  0.42120374  0.23965138    -0.60560
H1053       H  0.81677617  0.31815925  0.22806018     0.16380
O1054       O  0.75313560  0.36500795  0.26023758    -0.60660
H1055       H  0.75135978  0.35199364  0.28974940     0.43370
H1056       H  0.92615524  0.43336791  0.20981400     0.43330
C1057       C  0.31292458  0.25537035  0.10805421    -0.05740
C1058       C  0.30523843  0.28436626  0.14268075    -0.33170
C1059       C  0.33994461  0.30354395  0.16529662     0.36080
C1060       C  0.38307972  0.29339724  0.15358758    -0.06090
C1061       C  0.39037132  0.26235811  0.12063063    -0.33060
C1062       C  0.35580519  0.24306707  0.09836241     0.35990
H1063       H  0.27222888  0.29464300  0.14999198     0.16360
O1064       O  0.33126168  0.33202043  0.19850297    -0.60560
H1065       H  0.42324210  0.25320897  0.11148831     0.16380
O1066       O  0.36460493  0.21615417  0.06388525    -0.60660
H1067       H  0.36391809  0.18635583  0.07620978     0.43370
H1068       H  0.32867278  0.36088699  0.18433160     0.43330
C1069       C  0.36736740  0.18408131  0.26438768    -0.05740
C1070       C  0.33275297  0.19064315  0.23476635    -0.33170
C1071       C  0.31001362  0.15548395  0.21638384     0.36080
C1072       C  0.32161710  0.11260278  0.22752086    -0.06090
C1073       C  0.35493012  0.10630359  0.25871766    -0.33060
C1074       C  0.37739496  0.14142535  0.27724706     0.35990
H1075       H  0.32496762  0.22324258  0.22388498     0.16360
O1076       O  0.27659376  0.16355517  0.18771271    -0.60560
H1077       H  0.36404435  0.07378383  0.26872602     0.16380
O1078       O  0.41182328  0.13334953  0.30469620    -0.60660
H1079       H  0.39905491  0.13325770  0.33435360     0.43370
H1080       H  0.29079185  0.16677007  0.15887520     0.43330
C1081       C  0.55745867  0.17382052  0.25909569    -0.05740
C1082       C  0.54733364  0.14693618  0.22304485    -0.33170
C1083       C  0.57901843  0.12189344  0.20242423     0.36080
C1084       C  0.62213708  0.12277054  0.21729823    -0.06090
C1085       C  0.63335952  0.15159982  0.25134786    -0.33060
C1086       C  0.60131417  0.17662491  0.27260935     0.35990
H1087       H  0.51423857  0.14459840  0.21073137     0.16360
O1088       O  0.56690164  0.09440518  0.16934785    -0.60560
H1089       H  0.66661736  0.15331000  0.26301471     0.16380
O1090       O  0.61318727  0.20310109  0.30656774    -0.60660
H1091       H  0.61259506  0.18415841  0.33272513     0.43370
H1092       H  0.57315846  0.11068163  0.14214993     0.43330
C1093       C  0.63243950  0.26295535  0.09968596    -0.05740
C1094       C  0.64401113  0.25697509  0.14335476    -0.33170
C1095       C  0.61688709  0.27269797  0.17631978     0.36080
C1096       C  0.57850690  0.29562953  0.16549976    -0.06090
C1097       C  0.56805009  0.30298634  0.12187437    -0.33060
C1098       C  0.59438679  0.28630909  0.08906237     0.35990
H1099       H  0.67442604  0.24109897  0.15178976     0.16360
O1100       O  0.62717771  0.26429200  0.21899809    -0.60560
H1101       H  0.53782955  0.31910751  0.11313258     0.16380
O1102       O  0.58363925  0.29432174  0.04640350    -0.60660
H1103       H  0.55928306  0.27404967  0.03983038     0.43370
H1104       H  0.64328775  0.29039821  0.22917391     0.43330
C1105       C  0.80790092  0.75138437  0.61101580    -0.05740
C1106       C  0.85155123  0.74918556  0.59823599    -0.33570
C1107       C  0.88378282  0.76966488  0.62276956     0.36080
C1108       C  0.87279134  0.79157068  0.66149155    -0.06090
C1109       C  0.82936121  0.79199587  0.67550353    -0.33060
C1110       C  0.79683175  0.77247088  0.65019453     0.35990
H1111       H  0.86033034  0.73444159  0.56740282     0.16360
O1112       O  0.92649377  0.76604674  0.60995146    -0.60560
H1113       H  0.82096873  0.80618484  0.70667922     0.16380
O1114       O  0.75405078  0.77571480  0.66281656    -0.60660
H1115       H  0.74854949  0.74973868  0.68115237     0.43370
H1116       H  0.93175750  0.79148978  0.59080308     0.43330
C1117       C  0.74310788  0.94579501  0.64237137    -0.05740
C1118       C  0.73223512  0.95743103  0.59948422    -0.33170
C1119       C  0.71263811  0.92772866  0.57104497     0.36080
C1120       C  0.70282207  0.88509691  0.58493093    -0.06090
C1121       C  0.71219522  0.87356324  0.62829548    -0.33060
C1122       C  0.73246410  0.90345906  0.65689674     0.35990
H1123       H  0.73868682  0.99014948  0.58796566     0.16360
O1124       O  0.70454731  0.94028573  0.52889228    -0.60560
H1125       H  0.70544834  0.84086107  0.63943550     0.16380
O1126       O  0.73994196  0.89158742  0.69931447    -0.60660
H1127       H  0.76940954  0.87832292  0.69934249     0.43370
H1128       H  0.67363690  0.94979622  0.52863400     0.43330
C1129       C  0.73597200  0.93434991  0.34141711    -0.05740
C1130       C  0.77091467  0.91421112  0.36185543    -0.33170
C1131       C  0.76351882  0.88159552  0.39247173     0.36080
C1132       C  0.72034909  0.86654245  0.40086708    -0.06090
C1133       C  0.68531297  0.88656904  0.37998599    -0.33060
C1134       C  0.69273613  0.92084290  0.35094993     0.35990
H1135       H  0.80392190  0.92577949  0.35632571     0.16360
O1136       O  0.79824621  0.86786477  0.41723379    -0.60560
H1137       H  0.65211985  0.87650091  0.38697839     0.16380
O1138       O  0.65750325  0.94228523  0.33363167    -0.60660
H1139       H  0.64094413  0.92022122  0.31677266     0.43370
H1140       H  0.81999728  0.85666176  0.39632844     0.43330
C1141       C  0.82412896  0.75473667  0.41759787    -0.05740
C1142       C  0.80540541  0.75483184  0.37580124    -0.33170
C1143       C  0.82645949  0.77560474  0.34104635     0.36080
C1144       C  0.86706304  0.79626175  0.34753534    -0.06090
C1145       C  0.88505305  0.79747454  0.38949272    -0.33060
C1146       C  0.86402724  0.77699980  0.42431561     0.35990
H1147       H  0.77393145  0.73962744  0.37022767     0.16360
O1148       O  0.80800623  0.77412725  0.30036194    -0.60560
H1149       H  0.91698521  0.81185236  0.39478555     0.16380
O1150       O  0.88298130  0.77878670  0.46481698    -0.60660
H1151       H  0.90073199  0.75197107  0.46712237     0.43370
H1152       H  0.79042051  0.80105228  0.29804715     0.43330
C1153       C  0.69758673  0.19192951  0.39247137    -0.05740
C1154       C  0.68680455  0.14869077  0.40131832    -0.33170
C1155       C  0.70326828  0.11550043  0.37531719     0.36080
C1156       C  0.73082101  0.12539726  0.33993271    -0.06090
C1157       C  0.74055789  0.16865960  0.33012569    -0.33060
C1158       C  0.72425449  0.20193007  0.35626701     0.35990
H1159       H  0.66790132  0.14039625  0.42998131     0.16360
O1160       O  0.69211510  0.07321697  0.38445012    -0.60560
H1161       H  0.75965036  0.17665348  0.30151085     0.16380
O1162       O  0.73626153  0.24406492  0.34761487    -0.60660
H1163       H  0.71213770  0.25610124  0.32975171     0.43370
H1164       H  0.66308418  0.06879361  0.37073606     0.43330
C1165       C  0.70064794  0.17685049  0.58740353    -0.05740
C1166       C  0.69785515  0.19358504  0.62982374    -0.33170
C1167       C  0.71809404  0.17211452  0.66473274     0.36080
C1168       C  0.74176452  0.13347456  0.65759008    -0.06090
C1169       C  0.74633105  0.11799267  0.61504559    -0.33060
C1170       C  0.72554469  0.13878442  0.58030616     0.35990
H1171       H  0.68030465  0.22349327  0.63591944     0.16360
O1172       O  0.71262601  0.18775926  0.70615993    -0.60560
H1173       H  0.76282644  0.08742754  0.60911896     0.16380
O1174       O  0.72923208  0.12101740  0.53948918    -0.60660
H1175       H  0.70319366  0.10206435  0.53608158     0.43370
H1176       H  0.73814442  0.20698567  0.71135542     0.43330
C1177       C  0.80933898  0.28706162  0.60399903    -0.05740
C1178       C  0.79788962  0.29000268  0.64798600    -0.33170
C1179       C  0.82688575  0.27544888  0.68000645     0.36080
C1180       C  0.86690630  0.25658748  0.66779051    -0.06090
C1181       C  0.87728751  0.25200379  0.62380417    -0.33060
C1182       C  0.84905303  0.26756153  0.59198247     0.35990
H1183       H  0.76639119  0.30292339  0.65734323     0.16360
O1184       O  0.81657110  0.28084633  0.72309609    -0.60560
H1185       H  0.90861925  0.23885209  0.61413766     0.16380
O1186       O  0.85987332  0.26224263  0.54898364    -0.60660
H1187       H  0.87494967  0.28955443  0.54057406     0.43370
H1188       H  0.80633801  0.25192918  0.73314324     0.43330
C1189       C  0.82376892  0.28956281  0.41463510    -0.05740
C1190       C  0.84612295  0.32115404  0.39102137    -0.33170
C1191       C  0.87881850  0.30899908  0.36180218     0.36080
C1192       C  0.88675082  0.26437320  0.35271448    -0.06090
C1193       C  0.86250687  0.23279017  0.37442469    -0.33060
C1194       C  0.83272266  0.24494272  0.40660266     0.35990
H1195       H  0.84058487  0.35531158  0.39756065     0.16360
O1196       O  0.90360462  0.34122173  0.34324398    -0.60560
H1197       H  0.86892292  0.19862775  0.36878479     0.16380
O1198       O  0.81333713  0.21272628  0.43072262    -0.60660
H1199       H  0.83484025  0.20527415  0.45373778     0.43370
H1200       H  0.92632893  0.34838094  0.36518599     0.43330
C1201       C  0.05748579  0.79876296  0.35146654    -0.05740
C1202       C  0.05235641  0.76525083  0.38251952    -0.33170
C1203       C  0.08826237  0.74658098  0.40342777     0.36080
C1204       C  0.13049505  0.76180379  0.39433396    -0.06090
C1205       C  0.13582465  0.79482015  0.36277944    -0.33060
C1206       C  0.09991897  0.81328150  0.34144633     0.35990
H1207       H  0.02016328  0.75307800  0.39069751     0.16360
O1208       O  0.08125281  0.71630299  0.43549721    -0.60560
H1209       H  0.16812040  0.80751133  0.35577202     0.16380
O1210       O  0.10719043  0.84318368  0.30901964    -0.60660
H1211       H  0.09646267  0.87127075  0.32047602     0.43370
H1212       H  0.08225761  0.68781119  0.42045961     0.43330
C1213       C  0.23121976  0.85627512  0.60864841    -0.05740
C1214       C  0.18964001  0.87502933  0.61472449    -0.33170
C1215       C  0.18230540  0.90529356  0.64726245     0.36080
C1216       C  0.21690900  0.91756277  0.67447603    -0.06090
C1217       C  0.25769106  0.89634444  0.67051973    -0.33060
C1218       C  0.26513913  0.86632296  0.63737566     0.35990
H1219       H  0.16270879  0.86755602  0.59298152     0.16360
O1220       O  0.14209592  0.92462425  0.65004551    -0.60560
H1221       H  0.28475991  0.90455555  0.69173082     0.16380
O1222       O  0.30521524  0.84689100  0.63362134    -0.60660
H1223       H  0.32398791  0.86859959  0.61873591     0.43370
H1224       H  0.12469304  0.90537716  0.66932311     0.43330
C1225       C  0.11434974  0.75457174  0.58118458    -0.05740
C1226       C  0.12946486  0.76150285  0.62400898    -0.33170
C1227       C  0.10320283  0.78318865  0.65484196     0.36080
C1228       C  0.06134863  0.79824223  0.64291783    -0.06090
C1229       C  0.04694769  0.79178009  0.60004086    -0.33060
C1230       C  0.07257361  0.77004383  0.56966027     0.35990
H1231       H  0.16200808  0.75121869  0.63321078     0.16360
O1232       O  0.11769539  0.78729041  0.69692538    -0.60560
H1233       H  0.01448006  0.80203068  0.59048572     0.16380
O1234       O  0.05650971  0.76451583  0.52825205    -0.60660
H1235       H  0.04269605  0.73531814  0.52830824     0.43370
H1236       H  0.13335501  0.81554095  0.69776905     0.43330
C1237       C  0.20889367  0.93846884  0.35249618    -0.05740
C1238       C  0.25356326  0.92777018  0.35671129    -0.33170
C1239       C  0.26791337  0.89748636  0.38748266     0.36080
C1240       C  0.23776119  0.87900857  0.41615813    -0.06090
C1241       C  0.19307207  0.88968312  0.41199961    -0.33060
C1242       C  0.17835656  0.91873992  0.37995061     0.35990
H1243       H  0.27783852  0.94381047  0.33675180     0.16360
O1244       O  0.31165999  0.88896704  0.39153664    -0.60560
H1245       H  0.16937303  0.87606456  0.43438037     0.16380
O1246       O  0.13537056  0.93158268  0.37875854    -0.60660
H1247       H  0.11735098  0.90531105  0.38419962     0.43370
H1248       H  0.31777689  0.86619936  0.36954558     0.43330
loop_ 
_geom_bond_atom_site_label_1 
_geom_bond_atom_site_label_2 
_geom_bond_distance 
_geom_bond_site_symmetry_2 
_ccdc_geom_bond_type 
O1          Cr19   1.969       .  S
O1            C9   1.240       .  A
O2          Cr19   1.910       .  S
O2            C3   1.254       .  A
C3            O4   1.290       .  A
C3         C1213   1.461       .  S
O4          Cr20   2.070       .  S
O5          Cr20   1.985       .  S
O5            C6   1.263       .  A
C6            O7   1.275       .  A
C6          C303   1.505       .  S
O7          Cr21   2.028       .  S
O8          Cr21   2.044       .  S
O8            C9   1.259       .  A
C9         C1225   1.483       .  S
O10         Cr19   1.927       .  S
O10          C18   1.254       .  A
O11         Cr19   1.957       .  S
O11          C12   1.237       .  A
C12          O13   1.257       .  A
C12        C1240   1.474       .  S
O13         Cr20   2.032       .  S
O14         Cr20   2.025       .  S
O14          C15   1.275       .  A
C15          O16   1.268       .  A
C15         C312   1.505       .  S
O16         Cr21   1.992       .  S
O17         Cr21   2.087       .  S
O17          C18   1.293       .  A
C18        C1204   1.473       .  S
Cr19         O22   1.756       .  S
Cr20         O22   1.764       .  S
Cr21         O22   1.757       .  S
O23         Cr41   1.925       .  S
O23          C31   1.252       .  A
O24         Cr41   1.953       .  S
O24          C25   1.236       .  A
C25          O26   1.260       .  A
C25        C1189   1.475       .  S
O26         Cr42   2.037       .  S
O27         Cr42   2.020       .  S
O27          C28   1.272       .  A
C28          O29   1.266       .  A
C28         C330   1.500       .  S
O29         Cr43   1.983       .  S
O30         Cr43   2.062       .  S
O30          C31   1.285       .  A
C31        C1153   1.454       .  S
O32         Cr41   1.963       .  S
O32          C40   1.238       .  A
O33         Cr41   1.933       .  S
O33          C34   1.258       .  A
C34          O35   1.287       .  A
C34        C1177   1.449       .  S
O35         Cr42   2.059       .  S
O36         Cr42   1.995       .  S
O36          C37   1.267       .  A
C37          O38   1.268       .  A
C37         C287   1.498       .  S
O38         Cr43   2.004       .  S
O39         Cr43   2.030       .  S
O39          C40   1.257       .  A
C40        C1165   1.482       .  S
Cr41         O44   1.759       .  S
Cr42         O44   1.763       .  S
Cr43         O44   1.766       .  S
O45         Cr63   1.973       .  S
O45          C53   1.242       .  A
O46         Cr63   1.920       .  S
O46          C47   1.253       .  A
C47          O48   1.291       .  A
C47        C1132   1.474       .  S
O48         Cr64   2.077       .  S
O49         Cr64   2.013       .  S
O49          C50   1.271       .  A
C50          O51   1.269       .  A
C50         C319   1.509       .  S
O51         Cr65   2.010       .  S
O52         Cr65   2.018       .  S
O52          C53   1.256       .  A
C53        C1141   1.479       .  S
O54         Cr63   1.925       .  S
O54          C62   1.255       .  A
O55         Cr63   1.968       .  S
O55          C56   1.241       .  A
C56          O57   1.262       .  A
C56        C1120   1.484       .  S
O57         Cr64   2.049       .  S
O58         Cr64   2.031       .  S
O58          C59   1.275       .  A
C59          O60   1.262       .  A
C59         C292   1.499       .  S
O60         Cr65   1.968       .  S
O61         Cr65   2.059       .  S
O61          C62   1.286       .  A
C62        C1105   1.448       .  S
Cr63         O66   1.757       .  S
Cr64         O66   1.758       .  S
Cr65         O66   1.766       .  S
O67         Cr85   1.933       .  S
O67          C75   1.257       .  A
O68         Cr85   1.960       .  S
O68          C69   1.237       .  A
C69          O70   1.262       .  A
C69        C1081   1.493       .  S
O70         Cr86   2.057       .  S
O71         Cr86   2.029       .  S
O71          C72   1.276       .  A
C72          O73   1.261       .  A
C72         C328   1.500       .  S
O73         Cr87   1.974       .  S
O74         Cr87   2.060       .  S
O74          C75   1.287       .  A
C75        C1096   1.452       .  S
O76         Cr85   1.958       .  S
O76          C84   1.238       .  A
O77         Cr85   1.942       .  S
O77          C78   1.260       .  A
C78          O79   1.293       .  A
C78        C1069   1.477       .  S
O79         Cr86   2.084       .  S
O80         Cr86   2.006       .  S
O80          C81   1.270       .  A
C81          O82   1.271       .  A
C81         C276   1.504       .  S
O82         Cr87   2.008       .  S
O83         Cr87   2.019       .  S
O83          C84   1.254       .  A
C84        C1060   1.473       .  S
Cr85         O88   1.760       .  S
Cr86         O88   1.759       .  S
Cr87         O88   1.766       .  S
O89        Cr107   1.935       .  S
O89          C97   1.260       .  A
O90        Cr107   1.968       .  S
O90          C91   1.241       .  A
C91          O92   1.257       .  A
C91        C1033   1.476       .  S
O92        Cr108   2.029       .  S
O93        Cr108   2.008       .  S
O93          C94   1.268       .  A
C94          O95   1.270       .  A
C94         C321   1.505       .  S
O95        Cr109   2.006       .  S
O96        Cr109   2.085       .  S
O96          C97   1.294       .  A
C97        C1021   1.484       .  S
O98        Cr107   1.969       .  S
O98         C106   1.241       .  A
O99        Cr107   1.931       .  S
O99         C100   1.257       .  A
C100        O101   1.285       .  A
C100       C1045   1.445       .  S
O101       Cr108   2.054       .  S
O102       Cr108   1.987       .  S
O102        C103   1.265       .  A
C103        O104   1.276       .  A
C103        C332   1.509       .  S
O104       Cr109   2.035       .  S
O105       Cr109   2.050       .  S
O105        C106   1.261       .  A
C106       C1009   1.489       .  S
Cr107       O110   1.759       .  S
Cr108       O110   1.767       .  S
Cr109       O110   1.755       .  S
O111       Cr129   1.966       .  S
O111        C119   1.241       .  A
O112       Cr129   1.916       .  S
O112        C113   1.252       .  A
C113        O114   1.285       .  A
C113       C1000   1.444       .  S
O114       Cr130   2.063       .  S
O115       Cr130   1.996       .  S
O115        C116   1.268       .  A
C116        O117   1.271       .  A
C116        C314   1.501       .  S
O117       Cr131   2.011       .  S
O118       Cr131   2.043       .  S
O118        C119   1.259       .  A
C119        C961   1.477       .  S
O120       Cr129   1.916       .  S
O120        C128   1.253       .  A
O121       Cr129   1.968       .  S
O121        C122   1.239       .  A
C122        O123   1.259       .  A
C122        C988   1.478       .  S
O123       Cr130   2.038       .  S
O124       Cr130   2.013       .  S
O124        C125   1.270       .  A
C125        O126   1.268       .  A
C125        C323   1.501       .  S
O126       Cr131   1.993       .  S
O127       Cr131   2.065       .  S
O127        C128   1.286       .  A
C128        C973   1.448       .  S
Cr129       O132   1.757       .  S
Cr130       O132   1.762       .  S
Cr131       O132   1.759       .  S
O133       Cr151   1.934       .  S
O133        C141   1.255       .  A
O134       Cr151   1.951       .  S
O134        C135   1.235       .  A
C135        O136   1.260       .  A
C135        C916   1.470       .  S
O136       Cr152   2.038       .  S
O137       Cr152   2.027       .  S
O137        C138   1.274       .  A
C138        O139   1.262       .  A
C138        C278   1.500       .  S
O139       Cr153   1.976       .  S
O140       Cr153   2.067       .  S
O140        C141   1.287       .  A
C141        C928   1.471       .  S
O142       Cr151   1.960       .  S
O142        C150   1.241       .  A
O143       Cr151   1.932       .  S
O143        C144   1.256       .  A
C144        O145   1.287       .  A
C144        C949   1.458       .  S
O145       Cr152   2.068       .  S
O146       Cr152   1.994       .  S
O146        C147   1.267       .  A
C147        O148   1.273       .  A
C147        C310   1.505       .  S
O148       Cr153   2.021       .  S
O149       Cr153   2.011       .  S
O149        C150   1.255       .  A
C150        C937   1.469       .  S
Cr151       O154   1.763       .  S
Cr152       O154   1.767       .  S
Cr153       O154   1.768       .  S
O155       Cr173   1.961       .  S
O155        C163   1.240       .  A
O156       Cr173   1.919       .  S
O156        C157   1.253       .  A
C157        O158   1.285       .  A
C157        C877   1.449       .  S
O158       Cr174   2.059       .  S
O159       Cr174   1.969       .  S
O159        C160   1.261       .  A
C160        O161   1.273       .  A
C160        C305   1.490       .  S
O161       Cr175   2.015       .  S
O162       Cr175   2.035       .  S
O162        C163   1.261       .  A
C163        C889   1.481       .  S
O164       Cr173   1.934       .  S
O164        C172   1.259       .  A
O165       Cr173   1.962       .  S
O165        C166   1.239       .  A
C166        O167   1.254       .  A
C166        C865   1.477       .  S
O167       Cr174   2.020       .  S
O168       Cr174   2.000       .  S
O168        C169   1.269       .  A
C169        O170   1.265       .  A
C169        C267   1.493       .  S
O170       Cr175   1.990       .  S
O171       Cr175   2.054       .  S
O171        C172   1.287       .  A
C172        C904   1.454       .  S
Cr173       O176   1.758       .  S
Cr174       O176   1.767       .  S
Cr175       O176   1.760       .  S
O177       Cr195   1.974       .  S
O177        C185   1.244       .  A
O178       Cr195   1.918       .  S
O178        C179   1.252       .  A
C179        O180   1.287       .  A
C179        C844   1.452       .  S
O180       Cr196   2.072       .  S
O181       Cr196   1.994       .  S
O181        C182   1.269       .  A
C182        O183   1.268       .  A
C182        C301   1.498       .  S
O183       Cr197   2.006       .  S
O184       Cr197   2.038       .  S
O184        C185   1.259       .  A
C185        C853   1.479       .  S
O186       Cr195   1.920       .  S
O186        C194   1.255       .  A
O187       Cr195   1.967       .  S
O187        C188   1.242       .  A
C188        O189   1.259       .  A
C188        C817   1.486       .  S
O189       Cr196   2.040       .  S
O190       Cr196   2.018       .  S
O190        C191   1.271       .  A
C191        O192   1.268       .  A
C191        C294   1.506       .  S
O192       Cr197   1.998       .  S
O193       Cr197   2.049       .  S
O193        C194   1.285       .  A
C194        C829   1.456       .  S
Cr195       O198   1.760       .  S
Cr196       O198   1.763       .  S
Cr197       O198   1.761       .  S
O199       Cr217   1.964       .  S
O199        C207   1.239       .  A
O200       Cr217   1.943       .  S
O200        C201   1.260       .  A
C201        O202   1.292       .  A
C201        C796   1.474       .  S
O202       Cr218   2.084       .  S
O203       Cr218   2.000       .  S
O203        C204   1.269       .  A
C204        O205   1.268       .  A
C204        C283   1.498       .  S
O205       Cr219   2.001       .  S
O206       Cr219   2.022       .  S
O206        C207   1.256       .  A
C207        C805   1.477       .  S
O208       Cr217   1.929       .  S
O208        C216   1.257       .  A
O209       Cr217   1.966       .  S
O209        C210   1.240       .  A
C210        O211   1.262       .  A
C210        C781   1.490       .  S
O211       Cr218   2.052       .  S
O212       Cr218   2.032       .  S
O212        C213   1.276       .  A
C213        O214   1.263       .  A
C213        C296   1.507       .  S
O214       Cr219   1.986       .  S
O215       Cr219   2.045       .  S
O215        C216   1.283       .  A
C216        C769   1.441       .  S
Cr217       O220   1.759       .  S
Cr218       O220   1.755       .  S
Cr219       O220   1.768       .  S
O221       Cr239   1.940       .  S
O221        C229   1.259       .  A
O222       Cr239   1.960       .  S
O222        C223   1.239       .  A
C223        O224   1.260       .  A
C223        C736   1.478       .  S
O224       Cr240   2.041       .  S
O225       Cr240   2.024       .  S
O225        C226   1.273       .  A
C226        O227   1.266       .  A
C226        C285   1.503       .  S
O227       Cr241   1.987       .  S
O228       Cr241   2.061       .  S
O228        C229   1.287       .  A
C229        C745   1.461       .  S
O230       Cr239   1.959       .  S
O230        C238   1.238       .  A
O231       Cr239   1.949       .  S
O231        C232   1.259       .  A
C232        O233   1.290       .  A
C232        C757   1.471       .  S
O233       Cr240   2.075       .  S
O234       Cr240   1.994       .  S
O234        C235   1.268       .  A
C235        O236   1.269       .  A
C235        C269   1.497       .  S
O236       Cr241   2.008       .  S
O237       Cr241   2.031       .  S
O237        C238   1.257       .  A
C238        C721   1.481       .  S
Cr239       O242   1.761       .  S
Cr240       O242   1.760       .  S
Cr241       O242   1.765       .  S
O243       Cr261   1.955       .  S
O243        C251   1.239       .  A
O244       Cr261   1.932       .  S
O244        C245   1.251       .  A
C245        O246   1.284       .  A
C245        C700   1.461       .  S
O246       Cr262   2.066       .  S
O247       Cr262   1.978       .  S
O247        C248   1.265       .  A
C248        O249   1.270       .  A
C248        C265   1.495       .  S
O249       Cr263   2.016       .  S
O250       Cr263   2.033       .  S
O250        C251   1.261       .  A
C251        C709   1.475       .  S
O252       Cr261   1.932       .  S
O252        C260   1.260       .  A
O253       Cr261   1.970       .  S
O253        C254   1.244       .  A
C254        O255   1.258       .  A
C254        C685   1.484       .  S
O255       Cr262   2.021       .  S
O256       Cr262   2.009       .  S
O256        C257   1.270       .  A
C257        O258   1.266       .  A
C257        C274   1.497       .  S
O258       Cr263   1.992       .  S
O259       Cr263   2.049       .  S
O259        C260   1.285       .  A
C260        C673   1.470       .  S
Cr261       O264   1.758       .  S
Cr262       O264   1.768       .  S
Cr263       O264   1.765       .  S
C265        C266   1.408       .  A
C265        C270   1.412       .  A
C266        C267   1.404       .  A
C266        H271   1.083       .  S
C267        C268   1.409       .  A
C268        C269   1.412       .  A
C268        H272   1.083       .  S
C269        C270   1.415       .  A
C270        H273   1.083       .  S
C274        C275   1.415       .  A
C274        C279   1.413       .  A
C275        C276   1.412       .  A
C275        H280   1.083       .  S
C276        C277   1.411       .  A
C277        C278   1.414       .  A
C277        H281   1.083       .  S
C278        C279   1.408       .  A
C279        H282   1.083       .  S
C283        C284   1.416       .  A
C283        C288   1.410       .  A
C284        C285   1.413       .  A
C284        H289   1.083       .  S
C285        C286   1.414       .  A
C286        C287   1.411       .  A
C286        H290   1.083       .  S
C287        C288   1.408       .  A
C288        H291   1.083       .  S
C292        C293   1.410       .  A
C292        C297   1.415       .  A
C293        C294   1.415       .  A
C293        H298   1.083       .  S
C294        C295   1.417       .  A
C295        C296   1.418       .  A
C295        H299   1.083       .  S
C296        C297   1.406       .  A
C297        H300   1.083       .  S
C301        C302   1.416       .  A
C301        C306   1.407       .  A
C302        C303   1.418       .  A
C302        H307   1.083       .  S
C303        C304   1.408       .  A
C304        C305   1.414       .  A
C304        H308   1.083       .  S
C305        C306   1.404       .  A
C306        H309   1.083       .  S
C310        C311   1.414       .  A
C310        C315   1.411       .  A
C311        C312   1.415       .  A
C311        H316   1.083       .  S
C312        C313   1.411       .  A
C313        C314   1.415       .  A
C313        H317   1.083       .  S
C314        C315   1.414       .  A
C315        H318   1.083       .  S
C319        C320   1.418       .  A
C319        C324   1.415       .  A
C320        C321   1.417       .  A
C320        H325   1.083       .  S
C321        C322   1.409       .  A
C322        C323   1.411       .  A
C322        H326   1.083       .  S
C323        C324   1.415       .  A
C324        H327   1.083       .  S
C328        C329   1.405       .  A
C328        C333   1.419       .  A
C329        C330   1.411       .  A
C329        H334   1.083       .  S
C330        C331   1.413       .  A
C331        C332   1.418       .  A
C331        H335   1.083       .  S
C332        C333   1.413       .  A
C333        H336   1.083       .  S
O337       Cr355   1.958       .  S
O337        C345   1.238       .  A
O338       Cr355   1.941       .  S
O338        C339   1.256       .  A
C339        O340   1.288       .  A
C339       C1168   1.467       .  S
O340       Cr356   2.073       .  S
O341       Cr356   2.001       .  S
O341        C342   1.271       .  A
C342        O343   1.269       .  A
C342        C361   1.503       .  S
O343       Cr357   2.011       .  S
O344       Cr357   2.025       .  S
O344        C345   1.256       .  A
C345        C748   1.474       .  S
O346       Cr355   1.917   1_565  S
O346        C354   1.254       .  A
O347       Cr355   1.975       .  S
O347        C348   1.244   1_545  A
C348        O349   1.262       .  A
C348       C1117   1.487       .  S
O349       Cr356   2.044   1_565  S
O350       Cr356   2.022   1_565  S
O350        C351   1.272       .  A
C351        O352   1.264       .  A
C351        C666   1.501       .  S
O352       Cr357   1.985   1_565  S
O353       Cr357   2.058   1_565  S
O353        C354   1.285       .  A
C354        C832   1.445       .  S
Cr355       O358   1.760       .  S
Cr356       O358   1.756       .  S
Cr357       O358   1.768       .  S
C359        C382   1.495       .  S
C359        C360   1.409       .  A
C359        C364   1.409       .  A
C360        C361   1.408       .  A
C360        H365   1.083       .  S
C361        C362   1.417       .  A
C362        C363   1.418       .  A
C362        H366   1.083       .  S
C363        C616   1.504       .  S
C363        C364   1.412       .  A
C364        H367   1.083       .  S
O368       Cr386   1.942   1_455  S
O368        C376   1.259       .  A
O369       Cr386   1.962       .  S
O369        C370   1.239   1_655  A
C370        O371   1.257       .  A
C370        C697   1.477       .  S
O371       Cr387   2.026   1_455  S
O372       Cr387   2.005   1_455  S
O372        C373   1.267       .  A
C373        O374   1.269       .  A
C373        C414   1.499       .  S
O374       Cr388   1.998   1_455  S
O375       Cr388   2.062   1_455  S
O375        C376   1.287       .  A
C376        C868   1.464       .  S
O377       Cr386   1.964       .  S
O377        C385   1.239       .  A
O378       Cr386   1.938       .  S
O378        C379   1.258       .  A
C379        O380   1.284       .  A
C379       C1180   1.450       .  S
O380       Cr387   2.051       .  S
O381       Cr387   1.981       .  S
O381        C382   1.265       .  A
C382        O383   1.270       .  A
O383       Cr388   2.012       .  S
O384       Cr388   2.039       .  S
O384        C385   1.260       .  A
C385        C793   1.487       .  S
Cr386       O389   1.763       .  S
Cr387       O389   1.766       .  S
Cr388       O389   1.760       .  S
O390       Cr408   1.967       .  S
O390        C398   1.240   1_545  A
O391       Cr408   1.921   1_565  S
O391        C392   1.258       .  A
C392        O393   1.289       .  A
C392       C1216   1.467       .  S
O393       Cr409   2.052   1_565  S
O394       Cr409   1.995   1_565  S
O394        C395   1.266       .  A
C395        O396   1.273       .  A
C395        C443   1.508       .  S
O396       Cr410   2.023   1_565  S
O397       Cr410   2.049   1_565  S
O397        C398   1.262       .  A
C398        C856   1.496       .  S
O399       Cr408   1.934       .  S
O399        C407   1.254       .  A
O400       Cr408   1.954       .  S
O400        C401   1.235       .  A
C401        O402   1.257       .  A
C401        C712   1.476       .  S
O402       Cr409   2.034       .  S
O403       Cr409   2.010       .  S
O403        C404   1.270       .  A
C404        O405   1.270       .  A
C404        C412   1.500       .  S
O405       Cr410   1.996       .  S
O406       Cr410   2.077       .  S
O406        C407   1.290       .  A
C407        C724   1.468       .  S
Cr408       O411   1.761       .  S
Cr409       O411   1.763       .  S
Cr410       O411   1.762       .  S
C412        C413   1.417       .  A
C412        C417   1.410       .  A
C413        C414   1.417       .  A
C413        H418   1.083       .  S
C414        C415   1.408       .  A
C415        C416   1.407       .  A
C415        H419   1.083       .  S
C416        C541   1.491       .  S
C416        C417   1.407       .  A
C417        H420   1.083       .  S
O421       Cr439   1.972       .  S
O421        C429   1.242       .  A
O422       Cr439   1.914       .  S
O422        C423   1.253       .  A
C423        O424   1.288       .  A
C423       C1108   1.446       .  S
O424       Cr440   2.068       .  S
O425       Cr440   1.995       .  S
O425        C426   1.266       .  A
C426        O427   1.270       .  A
C426        C664   1.499       .  S
O427       Cr441   2.008       .  S
O428       Cr441   2.041       .  S
O428        C429   1.260       .  A
C429        C784   1.479       .  S
O430       Cr439   1.919   1_455  S
O430        C438   1.254       .  A
O431       Cr439   1.964       .  S
O431        C432   1.240   1_655  A
C432        O433   1.259       .  A
C432       C1228   1.478       .  S
O433       Cr440   2.043   1_455  S
O434       Cr440   2.018   1_455  S
O434        C435   1.273       .  A
C435        O436   1.267       .  A
C435        C447   1.504       .  S
O436       Cr441   1.996   1_455  S
O437       Cr441   2.061   1_455  S
O437        C438   1.285       .  A
C438        C880   1.443       .  S
Cr439       O442   1.756       .  S
Cr440       O442   1.760       .  S
Cr441       O442   1.759       .  S
C443        C444   1.411       .  A
C443        C448   1.415       .  A
C444        C445   1.418       .  A
C444        H449   1.083       .  S
C445        C466   1.506       .  S
C445        C446   1.412       .  A
C446        C447   1.416       .  A
C446        H450   1.083       .  S
C447        C448   1.414       .  A
C448        H451   1.083       .  S
O452       Cr470   1.965   1_554  S
O452        C460   1.239       .  A
O453       Cr470   1.919   1_554  S
O453        C454   1.258       .  A
C454        O455   1.295       .  A
C454        C940   1.481       .  S
O455       Cr471   2.084       .  S
O456       Cr471   2.011       .  S
O456        C457   1.269       .  A
C457        O458   1.271       .  A
C457        C496   1.508       .  S
O458       Cr472   2.008       .  S
O459       Cr472   2.048       .  S
O459        C460   1.260       .  A
C460        C964   1.489       .  S
O461       Cr470   1.925       .  S
O461        C469   1.250       .  A
O462       Cr470   1.956       .  S
O462        C463   1.235       .  A
C463        O464   1.260       .  A
C463        C892   1.481       .  S
O464       Cr471   2.046   1_556  S
O465       Cr471   2.035   1_556  S
O465        C466   1.278       .  A
C466        O467   1.265       .  A
O467       Cr472   1.981   1_556  S
O468       Cr472   2.073   1_556  S
O468        C469   1.287       .  A
C469        C841   1.451       .  S
Cr470       O473   1.751   1_556  S
Cr471       O473   1.759       .  S
Cr472       O473   1.764       .  S
O474       Cr492   1.941       .  S
O474        C482   1.257       .  A
O475       Cr492   1.962       .  S
O475        C476   1.241       .  A
C476        O477   1.259       .  A
C476       C1036   1.468       .  S
O477       Cr493   2.030       .  S
O478       Cr493   2.022       .  S
O478        C479   1.273       .  A
C479        O480   1.265       .  A
C479        C527   1.503       .  S
O480       Cr494   1.989       .  S
O481       Cr494   2.071       .  S
O481        C482   1.288       .  A
C482       C1144   1.463       .  S
O483       Cr492   1.968       .  S
O483        C491   1.242   1_655  A
O484       Cr492   1.937   1_455  S
O484        C485   1.259       .  A
C485        O486   1.287       .  A
C485        C952   1.468       .  S
O486       Cr493   2.063   1_455  S
O487       Cr493   1.988   1_455  S
O487        C488   1.264       .  A
C488        O489   1.274       .  A
C488        C498   1.503       .  S
O489       Cr494   2.024   1_455  S
O490       Cr494   2.019   1_455  S
O490        C491   1.257       .  A
C491       C1201   1.482       .  S
Cr492       O495   1.762       .  S
Cr493       O495   1.760       .  S
Cr494       O495   1.767       .  S
C496        C497   1.414       .  A
C496        C501   1.408       .  A
C497        C498   1.421       .  A
C497        H502   1.083       .  S
C498        C499   1.414       .  A
C499        C500   1.410       .  A
C499        H503   1.083       .  S
C500        C563   1.500       .  S
C500        C501   1.413       .  A
C501        H504   1.083       .  S
O505       Cr523   1.969       .  S
O505        C513   1.243       .  A
O506       Cr523   1.919       .  S
O506        C507   1.254       .  A
C507        O508   1.284       .  A
C507        C772   1.440       .  S
O508       Cr524   2.055       .  S
O509       Cr524   1.988       .  S
O509        C510   1.266       .  A
C510        O511   1.271       .  A
C510        C668   1.500       .  S
O511       Cr525   2.017       .  S
O512       Cr525   2.034       .  S
O512        C513   1.259       .  A
C513        C820   1.474       .  S
O514       Cr523   1.919   1_554  S
O514        C522   1.253       .  A
O515       Cr523   1.965   1_554  S
O515        C516   1.241       .  A
C516        O517   1.258       .  A
C516       C1024   1.487       .  S
O517       Cr524   2.030   1_554  S
O518       Cr524   2.008   1_554  S
O518        C519   1.269       .  A
C519        O520   1.266       .  A
C519        C529   1.497       .  S
O520       Cr525   1.990   1_554  S
O521       Cr525   2.062   1_554  S
O521        C522   1.287       .  A
C522        C976   1.458       .  S
Cr523       O526   1.760       .  S
Cr524       O526   1.766       .  S
Cr525       O526   1.758       .  S
C527        C528   1.411       .  A
C527        C532   1.417       .  A
C528        C529   1.412       .  A
C528        H533   1.083       .  S
C529        C530   1.411       .  A
C530        C531   1.410       .  A
C530        H534   1.083       .  S
C531        C647   1.502       .  S
C531        C532   1.413       .  A
C532        H535   1.083       .  S
O536       Cr554   1.966   1_556  S
O536        C544   1.241       .  A
O537       Cr554   1.931   1_556  S
O537        C538   1.256       .  A
C538        O539   1.285       .  A
C538        C901   1.448       .  S
O539       Cr555   2.058   1_556  S
O540       Cr555   1.981   1_556  S
O540        C541   1.264       .  A
C541        O542   1.270       .  A
O542       Cr556   2.007   1_556  S
O543       Cr556   2.032   1_556  S
O543        C544   1.259       .  A
C544        C760   1.484       .  S
O545       Cr554   1.932       .  S
O545        C553   1.255       .  A
O546       Cr554   1.961       .  S
O546        C547   1.240       .  A
C547        O548   1.257       .  A
C547        C925   1.483       .  S
O548       Cr555   2.025       .  S
O549       Cr555   2.011       .  S
O549        C550   1.270       .  A
C550        O551   1.267       .  A
C550        C604   1.497       .  S
O551       Cr556   1.990       .  S
O552       Cr556   2.057       .  S
O552        C553   1.285       .  A
C553       C1057   1.460       .  S
Cr554       O557   1.761       .  S
Cr555       O557   1.765       .  S
Cr556       O557   1.762       .  S
O558       Cr576   1.958       .  S
O558        C566   1.239   1_545  A
O559       Cr576   1.920   1_565  S
O559        C560   1.251       .  A
C560        O561   1.283       .  A
C560        C997   1.447       .  S
O561       Cr577   2.051   1_565  S
O562       Cr577   1.974   1_565  S
O562        C563   1.264       .  A
C563        O564   1.274       .  A
O564       Cr578   2.027   1_565  S
O565       Cr578   2.034   1_565  S
O565        C566   1.260       .  A
C566       C1237   1.471       .  S
O567       Cr576   1.917       .  S
O567        C575   1.255       .  A
O568       Cr576   1.970       .  S
O568        C569   1.244       .  A
C569        O570   1.257       .  A
C569       C1072   1.489       .  S
O570       Cr577   2.024       .  S
O571       Cr577   1.998       .  S
O571        C572   1.267       .  A
C572        O573   1.266       .  A
C572        C602   1.496       .  S
O573       Cr578   1.997       .  S
O574       Cr578   2.058       .  S
O574        C575   1.287       .  A
C575        C676   1.451       .  S
Cr576       O579   1.761       .  S
Cr577       O579   1.767       .  S
Cr578       O579   1.764       .  S
O580       Cr598   1.927       .  S
O580        C588   1.253       .  A
O581       Cr598   1.955       .  S
O581        C582   1.237       .  A
C582        O583   1.260       .  A
C582       C1192   1.475       .  S
O583       Cr599   2.037       .  S
O584       Cr599   2.029       .  S
O584        C585   1.275       .  A
C585        O586   1.266       .  A
C585        C657   1.506       .  S
O586       Cr600   1.988       .  S
O587       Cr600   2.056       .  S
O587        C588   1.283       .  A
C588       C1048   1.445       .  S
O589       Cr598   1.953       .  S
O589        C597   1.235   1_655  A
O590       Cr598   1.933   1_455  S
O590        C591   1.253       .  A
C591        O592   1.290       .  A
C591        C688   1.473       .  S
O592       Cr599   2.081   1_455  S
O593       Cr599   1.996   1_455  S
O593        C594   1.268       .  A
C594        O595   1.270       .  A
C594        C606   1.498       .  S
O595       Cr600   2.007   1_455  S
O596       Cr600   2.037   1_455  S
O596        C597   1.260       .  A
C597        C913   1.473       .  S
Cr598       O601   1.751       .  S
Cr599       O601   1.765       .  S
Cr600       O601   1.769       .  S
C602        C603   1.410       .  A
C602        C607   1.410       .  A
C603        C604   1.409       .  A
C603        H608   1.083       .  S
C604        C605   1.412       .  A
C605        C606   1.413       .  A
C605        H609   1.083       .  S
C606        C607   1.412       .  A
C607        H610   1.083       .  S
O611       Cr629   1.943       .  S
O611        C619   1.258       .  A
O612       Cr629   1.964       .  S
O612        C613   1.241       .  A
C613        O614   1.257       .  A
C613        C733   1.469       .  S
O614       Cr630   2.030       .  S
O615       Cr630   2.014       .  S
O615        C616   1.271       .  A
C616        O617   1.270       .  A
O617       Cr631   2.000       .  S
O618       Cr631   2.063       .  S
O618        C619   1.286       .  A
C619        C808   1.466       .  S
O620       Cr629   1.975   1_554  S
O620        C628   1.245       .  A
O621       Cr629   1.923   1_554  S
O621        C622   1.255       .  A
C622        O623   1.285       .  A
C622       C1093   1.450       .  S
O623       Cr630   2.061   1_554  S
O624       Cr630   1.994   1_554  S
O624        C625   1.266       .  A
C625        O626   1.270       .  A
C625        C659   1.505       .  S
O626       Cr631   2.018   1_554  S
O627       Cr631   2.041   1_554  S
O627        C628   1.262       .  A
C628       C1012   1.483       .  S
Cr629       O632   1.761       .  S
Cr630       O632   1.765       .  S
Cr631       O632   1.760       .  S
O633       Cr651   1.912       .  S
O633        C641   1.251       .  A
O634       Cr651   1.973       .  S
O634        C635   1.249       .  A
C635        O636   1.259       .  A
C635       C1084   1.475       .  S
O636       Cr652   2.027       .  S
O637       Cr652   2.018       .  S
O637        C638   1.272       .  A
C638        O639   1.265       .  A
C638        C655   1.500       .  S
O639       Cr653   1.992       .  S
O640       Cr653   2.053       .  S
O640        C641   1.281       .  A
C641       C1156   1.448       .  S
O642       Cr651   1.953       .  S
O642        C650   1.241   1_545  A
O643       Cr651   1.931   1_565  S
O643        C644   1.247       .  A
C644        O645   1.283       .  A
C644        C985   1.467       .  S
O645       Cr652   2.076   1_565  S
O646       Cr652   1.994   1_565  S
O646        C647   1.269       .  A
C647        O648   1.273       .  A
O648       Cr653   2.022   1_565  S
O649       Cr653   2.012   1_565  S
O649        C650   1.259       .  A
C650       C1129   1.463       .  S
Cr651       O654   1.759       .  S
Cr652       O654   1.765       .  S
Cr653       O654   1.767       .  S
C655        C656   1.415       .  A
C655        C660   1.411       .  A
C656        C657   1.414       .  A
C656        H661   1.083       .  S
C657        C658   1.418       .  A
C658        C659   1.413       .  A
C658        H662   1.083       .  S
C659        C660   1.411       .  A
C660        H663   1.083       .  S
C664        C665   1.414       .  A
C664        C669   1.410       .  A
C665        C666   1.413       .  A
C665        H670   1.083       .  S
C666        C667   1.415       .  A
C667        C668   1.410       .  A
C667        H671   1.083       .  S
C668        C669   1.411       .  A
C669        H672   1.083       .  S
C673        C674   1.396       .  A
C673        C678   1.415       .  A
C674        C675   1.392       .  A
C674        H679   1.083       .  S
C675        C676   1.414       .  A
C675        O680   1.373       .  S
C676        C677   1.386       .  A
C677        C678   1.388       .  A
C677        H681   1.084       .  S
C678        O682   1.361       .  S
O680        H684   0.992       .  S
O682        H683   0.992       .  S
C685        C686   1.412       .  A
C685        C690   1.407       .  A
C686        C687   1.398       .  A
C686        H691   1.084       .  S
C687        C688   1.403       .  A
C687        O692   1.372       .  S
C688        C689   1.411       .  A
C689        C690   1.406       .  A
C689        H693   1.084       .  S
C690        O694   1.375       .  S
O692        H696   0.992       .  S
O694        H695   0.990       .  S
C697        C698   1.409       .  A
C697        C702   1.407       .  A
C698        C699   1.394       .  A
C698        H703   1.084       .  S
C699        C700   1.403       .  A
C699        O704   1.372       .  S
C700        C701   1.408       .  A
C701        C702   1.400       .  A
C701        H705   1.084       .  S
C702        O706   1.371       .  S
O704        H708   0.991       .  S
O706        H707   0.992       .  S
C709        C710   1.392       .  A
C709        C714   1.421       .  A
C710        C711   1.398       .  A
C710        H715   1.084       .  S
C711        C712   1.421       .  A
C711        O716   1.372       .  S
C712        C713   1.392       .  A
C713        C714   1.398       .  A
C713        H717   1.084       .  S
C714        O718   1.371       .  S
O716        H720   0.992       .  S
O718        H719   0.992       .  S
C721        C722   1.411       .  A
C721        C726   1.406       .  A
C722        C723   1.394       .  A
C722        H727   1.084       .  S
C723        C724   1.402       .  A
C723        O728   1.372       .  S
C724        C725   1.411       .  A
C725        C726   1.402       .  A
C725        H729   1.084       .  S
C726        O730   1.371       .  S
O728        H732   0.991       .  S
O730        H731   0.991       .  S
C733        C734   1.404       .  A
C733        C738   1.404       .  A
C734        C735   1.409       .  A
C734        H739   1.080       .  S
C735        C736   1.410       .  A
C735        O740   1.371       .  S
C736        C737   1.406       .  A
C737        C738   1.391       .  A
C737        H741   1.084       .  S
C738        O742   1.372       .  S
O740        H744   0.991       .  S
O742        H743   0.992       .  S
C745        C746   1.407       .  A
C745        C750   1.401       .  A
C746        C747   1.400       .  A
C746        H751   1.081       .  S
C747        C748   1.406       .  A
C747        O752   1.371       .  S
C748        C749   1.409       .  A
C749        C750   1.391       .  A
C749        H753   1.084       .  S
C750        O754   1.372       .  S
O752        H756   0.992       .  S
O754        H755   0.992       .  S
C757        C758   1.398       .  A
C757        C762   1.411       .  A
C758        C759   1.397       .  A
C758        H763   1.084       .  S
C759        C760   1.417       .  A
C759        O764   1.372       .  S
C760        C761   1.404       .  A
C761        C762   1.404       .  A
C761        H765   1.083       .  S
C762        O766   1.370       .  S
O764        H768   0.992       .  S
O766        H767   0.992       .  S
C769        C770   1.395       .  A
C769        C774   1.407       .  A
C770        C771   1.387       .  A
C770        H775   1.085       .  S
C771        C772   1.407       .  A
C771        O776   1.372       .  S
C772        C773   1.399       .  A
C773        C774   1.395       .  A
C773        H777   1.084       .  S
C774        O778   1.371       .  S
O776        H780   0.991       .  S
O778        H779   0.991       .  S
C781        C782   1.408       .  A
C781        C786   1.410       .  A
C782        C783   1.395       .  A
C782        H787   1.084       .  S
C783        C784   1.405       .  A
C783        O788   1.372       .  S
C784        C785   1.411       .  A
C785        C786   1.413       .  A
C785        H789   1.083       .  S
C786        O790   1.370       .  S
O788        H792   0.992       .  S
O790        H791   0.992       .  S
C793        C794   1.403       .  A
C793        C798   1.419       .  A
C794        C795   1.404       .  A
C794        H799   1.083       .  S
C795        C796   1.412       .  A
C795        O800   1.370       .  S
C796        C797   1.398       .  A
C797        C798   1.399       .  A
C797        H801   1.084       .  S
C798        O802   1.372       .  S
O800        H804   0.992       .  S
O802        H803   0.992       .  S
C805        C806   1.401       .  A
C805        C810   1.416       .  A
C806        C807   1.399       .  A
C806        H811   1.083       .  S
C807        C808   1.409       .  A
C807        O812   1.369       .  S
C808        C809   1.398       .  A
C809        C810   1.397       .  A
C809        H813   1.084       .  S
C810        O814   1.373       .  S
O812        H816   0.992       .  S
O814        H815   0.992       .  S
C817        C818   1.407       .  A
C817        C822   1.411       .  A
C818        C819   1.393       .  A
C818        H823   1.083       .  S
C819        C820   1.404       .  A
C819        O824   1.372       .  S
C820        C821   1.409       .  A
C821        C822   1.412       .  A
C821        H825   1.084       .  S
C822        O826   1.371       .  S
O824        H828   0.992       .  S
O826        H827   0.992       .  S
C829        C830   1.411       .  A
C829        C834   1.400       .  A
C830        C831   1.394       .  A
C830        H835   1.081       .  S
C831        C832   1.395       .  A
C831        O836   1.372       .  S
C832        C833   1.405       .  A
C833        C834   1.387       .  A
C833        H837   1.085       .  S
C834        O838   1.372       .  S
O836        H840   0.992       .  S
O838        H839   0.992       .  S
C841        C842   1.398       .  A
C841        C846   1.411       .  A
C842        C843   1.393       .  A
C842        H847   1.084       .  S
C843        C844   1.408       .  A
C843        O848   1.371       .  S
C844        C845   1.401       .  A
C845        C846   1.399       .  A
C845        H849   1.084       .  S
C846        O850   1.372       .  S
O848        H852   0.992       .  S
O850        H851   0.991       .  S
C853        C854   1.411       .  A
C853        C858   1.400       .  A
C854        C855   1.410       .  A
C854        H859   1.080       .  S
C855        C856   1.409       .  A
C855        O860   1.370       .  S
C856        C857   1.414       .  A
C857        C858   1.399       .  A
C857        H861   1.083       .  S
C858        O862   1.372       .  S
O860        H864   0.992       .  S
O862        H863   0.992       .  S
C865        C866   1.409       .  A
C865        C870   1.407       .  A
C866        C867   1.393       .  A
C866        H871   1.084       .  S
C867        C868   1.402       .  A
C867        O872   1.372       .  S
C868        C869   1.407       .  A
C869        C870   1.400       .  A
C869        H873   1.082       .  S
C870        O874   1.371       .  S
O872        H876   0.992       .  S
O874        H875   0.992       .  S
C877        C878   1.409       .  A
C877        C882   1.400       .  A
C878        C879   1.396       .  A
C878        H883   1.084       .  S
C879        C880   1.400       .  A
C879        O884   1.372       .  S
C880        C881   1.404       .  A
C881        C882   1.390       .  A
C881        H885   1.085       .  S
C882        O886   1.372       .  S
O884        H888   0.992       .  S
O886        H887   0.992       .  S
C889        C890   1.393       .  A
C889        C894   1.422       .  A
C890        C891   1.399       .  A
C890        H895   1.084       .  S
C891        C892   1.422       .  A
C891        O896   1.371       .  S
C892        C893   1.394       .  A
C893        C894   1.402       .  A
C893        H897   1.084       .  S
C894        O898   1.372       .  S
O896        H900   0.992       .  S
O898        H899   0.992       .  S
C901        C902   1.402       .  A
C901        C906   1.401       .  A
C902        C903   1.390       .  A
C902        H907   1.085       .  S
C903        C904   1.402       .  A
C903        O908   1.372       .  S
C904        C905   1.407       .  A
C905        C906   1.398       .  A
C905        H909   1.084       .  S
C906        O910   1.372       .  S
O908        H912   0.992       .  S
O910        H911   0.992       .  S
C913        C914   1.416       .  A
C913        C918   1.399       .  A
C914        C915   1.395       .  A
C914        H919   1.080       .  S
C915        C916   1.393       .  A
C915        O920   1.372       .  S
C916        C917   1.416       .  A
C917        C918   1.397       .  A
C917        H921   1.083       .  S
C918        O922   1.374       .  S
O920        H924   0.992       .  S
O922        H923   0.989       .  S
C925        C926   1.413       .  A
C925        C930   1.407       .  A
C926        C927   1.395       .  A
C926        H931   1.083       .  S
C927        C928   1.400       .  A
C927        O932   1.371       .  S
C928        C929   1.411       .  A
C929        C930   1.400       .  A
C929        H933   1.084       .  S
C930        O934   1.372       .  S
O932        H936   0.992       .  S
O934        H935   0.989       .  S
C937        C938   1.412       .  A
C937        C942   1.394       .  A
C938        C939   1.399       .  A
C938        H943   1.083       .  S
C939        C940   1.402       .  A
C939        O944   1.372       .  S
C940        C941   1.419       .  A
C941        C942   1.392       .  A
C941        H945   1.082       .  S
C942        O946   1.372       .  S
O944        H948   0.992       .  S
O946        H947   0.991       .  S
C949        C950   1.392       .  A
C949        C954   1.413       .  A
C950        C951   1.397       .  A
C950        H955   1.084       .  S
C951        C952   1.413       .  A
C951        O956   1.366       .  S
C952        C953   1.396       .  A
C953        C954   1.396       .  A
C953        H957   1.084       .  S
C954        O958   1.373       .  S
O956        H960   0.991       .  S
O958        H959   0.992       .  S
C961        C962   1.399       .  A
C961        C966   1.413       .  A
C962        C963   1.393       .  A
C962        H967   1.085       .  S
C963        C964   1.415       .  A
C963        O968   1.373       .  S
C964        C965   1.408       .  A
C965        C966   1.413       .  A
C965        H969   1.083       .  S
C966        O970   1.371       .  S
O968        H972   0.992       .  S
O970        H971   0.991       .  S
C973        C974   1.406       .  A
C973        C978   1.397       .  A
C974        C975   1.390       .  A
C974        H979   1.085       .  S
C975        C976   1.400       .  A
C975        O980   1.372       .  S
C976        C977   1.412       .  A
C977        C978   1.396       .  A
C977        H981   1.084       .  S
C978        O982   1.371       .  S
O980        H984   0.992       .  S
O982        H983   0.992       .  S
C985        C986   1.408       .  A
C985        C990   1.407       .  A
C986        C987   1.405       .  A
C986        H991   1.084       .  S
C987        C988   1.409       .  A
C987        O992   1.371       .  S
C988        C989   1.406       .  A
C989        C990   1.398       .  A
C989        H993   1.084       .  S
C990        O994   1.372       .  S
O992        H996   0.992       .  S
O994        H995   0.991       .  S
C997        C998   1.393       .  A
C997       C1002   1.412       .  A
C998        C999   1.388       .  A
C998       H1003   1.084       .  S
C999       C1000   1.410       .  A
C999       O1004   1.372       .  S
C1000      C1001   1.396       .  A
C1001      C1002   1.398       .  A
C1001      H1005   1.084       .  S
C1002      O1006   1.374       .  S
O1004      H1008   0.992       .  S
O1006      H1007   0.991       .  S
C1009      C1010   1.406       .  A
C1009      C1014   1.411       .  A
C1010      C1011   1.397       .  A
C1010      H1015   1.084       .  S
C1011      C1012   1.407       .  A
C1011      O1016   1.372       .  S
C1012      C1013   1.410       .  A
C1013      C1014   1.414       .  A
C1013      H1017   1.084       .  S
C1014      O1018   1.370       .  S
O1016      H1020   0.992       .  S
O1018      H1019   0.992       .  S
C1021      C1022   1.412       .  A
C1021      C1026   1.403       .  A
C1022      C1023   1.401       .  A
C1022      H1027   1.079       .  S
C1023      C1024   1.403       .  A
C1023      O1028   1.372       .  S
C1024      C1025   1.415       .  A
C1025      C1026   1.401       .  A
C1025      H1029   1.083       .  S
C1026      O1030   1.371       .  S
O1028      H1032   0.992       .  S
O1030      H1031   0.992       .  S
C1033      C1034   1.404       .  A
C1033      C1038   1.410       .  A
C1034      C1035   1.392       .  A
C1034      H1039   1.084       .  S
C1035      C1036   1.406       .  A
C1035      O1040   1.372       .  S
C1036      C1037   1.404       .  A
C1037      C1038   1.408       .  A
C1037      H1041   1.082       .  S
C1038      O1042   1.371       .  S
O1040      H1044   0.992       .  S
O1042      H1043   0.991       .  S
C1045      C1046   1.397       .  A
C1045      C1050   1.406       .  A
C1046      C1047   1.389       .  A
C1046      H1051   1.085       .  S
C1047      C1048   1.407       .  A
C1047      O1052   1.372       .  S
C1048      C1049   1.401       .  A
C1049      C1050   1.396       .  A
C1049      H1053   1.084       .  S
C1050      O1054   1.371       .  S
O1052      H1056   0.991       .  S
O1054      H1055   0.992       .  S
C1057      C1058   1.409       .  A
C1057      C1062   1.400       .  A
C1058      C1059   1.398       .  A
C1058      H1063   1.084       .  S
C1059      C1060   1.406       .  A
C1059      O1064   1.372       .  S
C1060      C1061   1.410       .  A
C1061      C1062   1.391       .  A
C1061      H1065   1.084       .  S
C1062      O1066   1.372       .  S
O1064      H1068   0.992       .  S
O1066      H1067   0.992       .  S
C1069      C1070   1.410       .  A
C1069      C1074   1.405       .  A
C1070      C1071   1.403       .  A
C1070      H1075   1.084       .  S
C1071      C1072   1.409       .  A
C1071      O1076   1.372       .  S
C1072      C1073   1.411       .  A
C1073      C1074   1.400       .  A
C1073      H1077   1.083       .  S
C1074      O1078   1.371       .  S
O1076      H1080   0.992       .  S
O1078      H1079   0.992       .  S
C1081      C1082   1.415       .  A
C1081      C1086   1.407       .  A
C1082      C1083   1.394       .  A
C1082      H1087   1.083       .  S
C1083      C1084   1.396       .  A
C1083      O1088   1.372       .  S
C1084      C1085   1.413       .  A
C1085      C1086   1.411       .  A
C1085      H1089   1.080       .  S
C1086      O1090   1.371       .  S
O1088      H1092   0.992       .  S
O1090      H1091   0.992       .  S
C1093      C1094   1.398       .  A
C1093      C1098   1.408       .  A
C1094      C1095   1.398       .  A
C1094      H1099   1.084       .  S
C1095      C1096   1.411       .  A
C1095      O1100   1.371       .  S
C1096      C1097   1.395       .  A
C1097      C1098   1.391       .  A
C1097      H1101   1.084       .  S
C1098      O1102   1.372       .  S
O1100      H1104   0.992       .  S
O1102      H1103   0.991       .  S
C1105      C1106   1.396       .  A
C1105      C1110   1.409       .  A
C1106      C1107   1.390       .  A
C1106      H1111   1.085       .  S
C1107      C1108   1.409       .  A
C1107      O1112   1.372       .  S
C1108      C1109   1.399       .  A
C1109      C1110   1.397       .  A
C1109      H1113   1.084       .  S
C1110      O1114   1.371       .  S
O1112      H1116   0.991       .  S
O1114      H1115   0.991       .  S
C1117      C1118   1.404       .  A
C1117      C1122   1.414       .  A
C1118      C1119   1.397       .  A
C1118      H1123   1.084       .  S
C1119      C1120   1.410       .  A
C1119      O1124   1.372       .  S
C1120      C1121   1.407       .  A
C1121      C1122   1.413       .  A
C1121      H1125   1.082       .  S
C1122      O1126   1.371       .  S
O1124      H1128   0.992       .  S
O1126      H1127   0.991       .  S
C1129      C1130   1.387       .  A
C1129      C1134   1.418       .  A
C1130      C1131   1.393       .  A
C1130      H1135   1.084       .  S
C1131      C1132   1.423       .  A
C1131      O1136   1.373       .  S
C1132      C1133   1.394       .  A
C1133      C1134   1.398       .  A
C1133      H1137   1.084       .  S
C1134      O1138   1.372       .  S
O1136      H1140   0.989       .  S
O1138      H1139   0.992       .  S
C1141      C1142   1.404       .  A
C1141      C1146   1.414       .  A
C1142      C1143   1.401       .  A
C1142      H1147   1.083       .  S
C1143      C1144   1.409       .  A
C1143      O1148   1.370       .  S
C1144      C1145   1.400       .  A
C1145      C1146   1.398       .  A
C1145      H1149   1.084       .  S
C1146      O1150   1.372       .  S
O1148      H1152   0.992       .  S
O1150      H1151   0.992       .  S
C1153      C1154   1.396       .  A
C1153      C1158   1.414       .  A
C1154      C1155   1.393       .  A
C1154      H1159   1.084       .  S
C1155      C1156   1.409       .  A
C1155      O1160   1.373       .  S
C1156      C1157   1.396       .  A
C1157      C1158   1.395       .  A
C1157      H1161   1.084       .  S
C1158      O1162   1.372       .  S
O1160      H1164   0.992       .  S
O1162      H1163   0.992       .  S
C1165      C1166   1.403       .  A
C1165      C1170   1.416       .  A
C1166      C1167   1.403       .  A
C1166      H1171   1.083       .  S
C1167      C1168   1.412       .  A
C1167      O1172   1.371       .  S
C1168      C1169   1.398       .  A
C1169      C1170   1.396       .  A
C1169      H1173   1.084       .  S
C1170      O1174   1.372       .  S
O1172      H1176   0.991       .  S
O1174      H1175   0.992       .  S
C1177      C1178   1.399       .  A
C1177      C1182   1.408       .  A
C1178      C1179   1.398       .  A
C1178      H1183   1.084       .  S
C1179      C1180   1.409       .  A
C1179      O1184   1.371       .  S
C1180      C1181   1.395       .  A
C1181      C1182   1.389       .  A
C1181      H1185   1.084       .  S
C1182      O1186   1.372       .  S
O1184      H1188   0.991       .  S
O1186      H1187   0.992       .  S
C1189      C1190   1.391       .  A
C1189      C1194   1.422       .  A
C1190      C1191   1.398       .  A
C1190      H1195   1.084       .  S
C1191      C1192   1.423       .  A
C1191      O1196   1.371       .  S
C1192      C1193   1.391       .  A
C1193      C1194   1.398       .  A
C1193      H1197   1.084       .  S
C1194      O1198   1.371       .  S
O1196      H1200   0.992       .  S
O1198      H1199   0.992       .  S
C1201      C1202   1.412       .  A
C1201      C1206   1.407       .  A
C1202      C1203   1.397       .  A
C1202      H1207   1.083       .  S
C1203      C1204   1.403       .  A
C1203      O1208   1.371       .  S
C1204      C1205   1.412       .  A
C1205      C1206   1.400       .  A
C1205      H1209   1.084       .  S
C1206      O1210   1.373       .  S
O1208      H1212   0.991       .  S
O1210      H1211   0.990       .  S
C1213      C1214   1.412       .  A
C1213      C1218   1.395       .  A
C1214      C1215   1.385       .  A
C1214      H1219   1.084       .  S
C1215      C1216   1.399       .  A
C1215      O1220   1.372       .  S
C1216      C1217   1.416       .  A
C1217      C1218   1.394       .  A
C1217      H1221   1.082       .  S
C1218      O1222   1.372       .  S
O1220      H1224   0.992       .  S
O1222      H1223   0.992       .  S
C1225      C1226   1.409       .  A
C1225      C1230   1.411       .  A
C1226      C1227   1.412       .  A
C1226      H1231   1.083       .  S
C1227      C1228   1.412       .  A
C1227      O1232   1.371       .  S
C1228      C1229   1.401       .  A
C1229      C1230   1.393       .  A
C1229      H1233   1.084       .  S
C1230      O1234   1.373       .  S
O1232      H1236   0.992       .  S
O1234      H1235   0.992       .  S
C1237      C1238   1.414       .  A
C1237      C1242   1.397       .  A
C1238      C1239   1.397       .  A
C1238      H1243   1.082       .  S
C1239      C1240   1.396       .  A
C1239      O1244   1.371       .  S
C1240      C1241   1.414       .  A
C1241      C1242   1.403       .  A
C1241      H1245   1.084       .  S
C1242      O1246   1.376       .  S
O1244      H1248   0.992       .  S
O1246      H1247   0.991       .  S
