geometry optimzed in LAMMPS
_audit_creation_date              2020-11-30 
_audit_creation_method            'lammps2cif' 
_symmetry_space_group_name_H-M    'P1' 
_symmetry_Int_Tables_number       1 
_symmetry_cell_setting            triclinic 
loop_ 
_symmetry_equiv_pos_as_xyz 
  x,y,z 
_cell_length_a                    24.624553837253515 
_cell_length_b                    25.124896031386783 
_cell_length_c                    28.94820269505446 
_cell_angle_alpha                 89.12660660506077 
_cell_angle_beta                  90.26384678953548 
_cell_angle_gamma                 89.96051828803004 
loop_ 
_atom_site_label 
_atom_site_type_symbol 
_atom_site_fract_x 
_atom_site_fract_y 
_atom_site_fract_z 
_atom_site_charge 
C1          C  0.50333171  0.25345426  0.52281063     0.02330
C2          C  0.00278544  0.25279524  0.47545365     0.02330
C3          C  0.25745959  0.99845293  0.47772436     0.02330
C4          C  0.25390859  0.49646437  0.51996762     0.02330
C5          C  0.20798380  0.39672717  0.61697431     0.44220
N6          N  0.19429870  0.34509089  0.67530848     0.03110
C7          C  0.40229924  0.25240026  0.81574092    -0.04760
H8          H  0.41814671  0.20625662  0.63681299     0.08600
C9          C  0.24874073  0.10300247  0.64516646    -0.05120
Co10       Co  0.29762299  0.33362851  0.72803208     0.74180
N11         N  0.36665162  0.25458656  0.67892449    -0.24290
Co12       Co  0.34111695  0.20270218  0.72893461     0.74070
C13         C  0.29895246  0.09876234  0.62046472     0.44320
N14         N  0.15379680  0.19016414  0.67643637     0.02730
N15         N  0.31153219  0.14981419  0.67815308     0.02830
N16         N  0.36686063  0.33520517  0.81192196    -0.45140
H17         H  0.29671944  0.41058989  0.63632137     0.08590
N18         N  0.35154973  0.30499321  0.67725536     0.03120
N19         N  0.31283938  0.15345653  0.78006573     0.02860
C20         C  0.30750455  0.11528203  0.84613990     0.44460
N21         N  0.13876988  0.24054796  0.67768304    -0.23750
C22         C  0.24596730  0.39340913  0.81425201    -0.04670
N23         N  0.16951637  0.36667319  0.63846501    -0.44870
N24         N  0.34089406  0.14187023  0.81770440    -0.45080
C25         C  0.19080097  0.39557381  0.83341618     0.44240
N26         N  0.34850485  0.30557306  0.77837680     0.03110
N27         N  0.13684404  0.23696155  0.77845423    -0.23770
N28         N  0.24563851  0.35975535  0.67777610    -0.24260
N29         N  0.15536250  0.18773498  0.77756077     0.02750
H30         H  0.08003872  0.27497366  0.82479110     0.08640
H31         H  0.21782290  0.09287735  0.83445885     0.08670
N32         N  0.36780547  0.25665644  0.77937137    -0.24310
N33         N  0.26012523  0.13531523  0.67980034    -0.23930
N34         N  0.19139494  0.34264862  0.77644810     0.03110
C35         C  0.40325839  0.29403205  0.61915673     0.44510
C36         C  0.10580726  0.25196314  0.64254911    -0.05180
N37         N  0.26217534  0.13650290  0.78140307    -0.23920
H38         H  0.20973007  0.08505534  0.63810108     0.08660
N39         N  0.37291879  0.33074844  0.64114358    -0.45150
H40         H  0.08722220  0.29018987  0.63516103     0.08640
C41         C  0.10340138  0.18638548  0.83631973     0.44340
C42         C  0.25762399  0.39247663  0.64287104    -0.04670
Co43       Co  0.16401557  0.29196106  0.72697323     0.73820
N44         N  0.13205312  0.16541925  0.64038405    -0.44860
C45         C  0.40049461  0.30482449  0.83751860     0.44610
N46         N  0.15991716  0.36299838  0.80816522    -0.44850
Co47       Co  0.20729738  0.16097173  0.72864896     0.73890
C48         C  0.25529783  0.11004482  0.82197073    -0.05180
C49         C  0.39950733  0.24422446  0.64395476    -0.04740
N50         N  0.24199833  0.35966207  0.77839107    -0.24270
N51         N  0.33701880  0.12841952  0.64235200    -0.45030
H52         H  0.42512125  0.21729269  0.82584450     0.08620
C53         C  0.10242182  0.24000682  0.81470295    -0.05160
Cl54       Cl  0.25245966  0.24737075  0.72804980    -0.48160
C55         C  0.10168494  0.20295882  0.61804107     0.44370
H56         H  0.28202684  0.41483683  0.82450384     0.08580
N57         N  0.13654096  0.15683024  0.81081391    -0.44870
C58         C  0.10460831  0.20485954  0.37864055     0.44220
N59         N  0.14211745  0.23622739  0.31789408     0.03110
C60         C  0.35352270  0.13544729  0.18864457    -0.04760
H61         H  0.38577812  0.14442924  0.37041522     0.08600
C62         C  0.37126448  0.34040510  0.35240311    -0.05120
Co63       Co  0.21576919  0.16036908  0.26926435     0.74180
N64         N  0.32008694  0.15819504  0.32127329    -0.24290
Co65       Co  0.34641589  0.21164616  0.26792126     0.74070
C66         C  0.40481330  0.29975236  0.37575483     0.44320
N67         N  0.24101116  0.36309887  0.31350255     0.02730
N68         N  0.36906135  0.26634333  0.31573778     0.02830
N69         N  0.27070317  0.09607853  0.18928528    -0.45140
H70         H  0.14575356  0.12290035  0.36978537     0.08590
N71         N  0.26994308  0.13956558  0.32005255     0.03120
N72         N  0.36955399  0.26596231  0.21452911     0.02860
C73         C  0.40321178  0.30453612  0.15413564     0.44460
N74         N  0.19136085  0.34360461  0.31664148    -0.23750
C75         C  0.14347563  0.15727809  0.18261347    -0.04670
N76         N  0.10901659  0.24834969  0.35177530    -0.44860
N77         N  0.40441231  0.25895874  0.17998805    -0.45080
C78         C  0.10706239  0.19387863  0.15794460     0.44240
N79         N  0.27355944  0.13530968  0.21977186     0.03110
N80         N  0.18701630  0.34078340  0.21613856    -0.23770
N81         N  0.16028408  0.18685993  0.32000354    -0.24260
N82         N  0.23592419  0.36158308  0.21230833     0.02750
H83         H  0.11197348  0.35116259  0.17944389     0.08640
H84         H  0.35541012  0.38138439  0.16709869     0.08670
N85         N  0.32211091  0.15750199  0.22019003    -0.24310
N86         N  0.35050096  0.31562837  0.31512928    -0.23930
N87         N  0.14092849  0.23311019  0.21692804     0.03110
C88         C  0.30247593  0.10362421  0.38130488     0.44510
C89         C  0.16796180  0.36423593  0.35452224    -0.05180
N90         N  0.34737839  0.31383142  0.21310988    -0.23920
H91         H  0.36294663  0.38086320  0.36242561     0.08660
N92         N  0.25806760  0.10721070  0.35476450    -0.45150
H93         H  0.12747138  0.35572548  0.36686770     0.08640
C94         C  0.18807767  0.39754461  0.15804080     0.44340
C95         C  0.13844634  0.16331406  0.35796900    -0.04670
Co96       Co  0.16427618  0.28877142  0.26697883     0.73820
N97         N  0.25349757  0.39587706  0.34705689    -0.44860
C98         C  0.31990452  0.09518001  0.16814900     0.44610
N99         N  0.10715900  0.24014648  0.18135059    -0.44850
Co100      Co  0.29445680  0.33990487  0.26315031     0.73890
C101        C  0.36580879  0.34075667  0.17634530    -0.05180
C102        C  0.34445767  0.13715520  0.35942101    -0.04740
N103        N  0.16221491  0.18490691  0.21817531    -0.24270
N104        N  0.40133127  0.25539541  0.35101504    -0.45030
H105        H  0.39600558  0.14421219  0.18302980     0.08620
C106        C  0.15454252  0.36061113  0.18365136    -0.05160
Cl107      Cl  0.25528178  0.25014092  0.26669763    -0.48160
C108        C  0.20981941  0.39873945  0.37427519     0.44370
H109        H  0.15417424  0.11645913  0.17572177     0.08580
N110        N  0.23864652  0.39653696  0.17719659    -0.44870
O111        O  0.09346964  0.44875747  0.94727844    -0.78370
O112        O  0.01337409  0.13530281  0.03455529    -0.78400
O113        O  0.01212715  0.05909862  0.90440096    -0.78400
O114        O  0.02678466  0.45963107  0.09247502    -0.78350
O115        O  0.06302226  0.07839555  0.96549737    -0.78470
O116        O  0.09274508  0.45373714  0.04259432    -0.78390
O117        O  0.02759309  0.05854738  0.07214913    -0.78370
O118        O  0.02709551  0.45467567  0.89569524    -0.78410
C119        C  0.07726527  0.45004555  0.90572259     1.11320
C120        C  0.03569679  0.10903804  0.06741541     1.11200
C121        C  0.05304993  0.08235258  0.92255629     1.11340
C122        C  0.07694691  0.45512607  0.08395100     1.11220
O123        O  0.49680852  0.38916687  0.04391936    -0.78370
O124        O  0.44869468  0.11016996  0.95863982    -0.78450
O125        O  0.47418084  0.45256927  0.88788155    -0.78390
O126        O  0.44462835  0.02017669  0.09209229    -0.78370
O127        O  0.43101910  0.08097202  0.03967847    -0.78420
O128        O  0.46766416  0.40922914  0.95481318    -0.78380
O129        O  0.42296590  0.43531918  0.04519950    -0.78340
O130        O  0.40235034  0.03830816  0.94296974    -0.78410
Co131      Co  0.04375631  0.42168396  0.99575697     1.51530
Co132      Co  0.99941744  0.06863596  0.00536007     1.51690
Co133      Co  0.96688206  0.49369422  0.92708406     1.51570
Co134      Co  0.97303590  0.99967336  0.05154872     1.51470
O135        O  0.00178812  0.99085485  0.98919468    -1.40310
C136        C  0.44698078  0.39236513  0.05430601     1.11240
C137        C  0.40643490  0.08823067  0.94169340     1.11330
C138        C  0.45746614  0.41292767  0.91109842     1.11270
C139        C  0.41567788  0.05697381  0.07523347     1.11250
C140        C  0.16662423  0.43112345  0.11983237    -0.14670
C141        C  0.11433732  0.44657750  0.12310883    -0.29840
H142        H  0.18855596  0.43381398  0.08744200     0.14350
H143        H  0.09488435  0.44467020  0.15677344     0.14930
C144        C  0.07169672  0.18104745  0.11799237    -0.14670
C145        C  0.07461634  0.13229889  0.09982257    -0.29840
H146        H  0.04127878  0.20943190  0.10602721     0.14350
H147        H  0.10419551  0.10407004  0.11328464     0.14930
C148        C  0.36667214  0.07800314  0.09788057    -0.14670
C149        C  0.34177279  0.05681461  0.13496149    -0.29840
H150        H  0.35572928  0.11848150  0.08751680     0.14350
H151        H  0.35057461  0.01645118  0.14662407     0.14930
C152        C  0.43792733  0.31932114  0.11403874    -0.14670
C153        C  0.41650801  0.35194705  0.08135990    -0.29840
H154        H  0.48128716  0.31163593  0.11563861     0.14350
H155        H  0.37276305  0.35806562  0.08168487     0.14930
C156        C  0.16723706  0.42638515  0.87138695    -0.14670
C157        C  0.11437679  0.43950912  0.86734923    -0.29840
H158        H  0.18959424  0.43139869  0.90342753     0.14350
H159        H  0.09468497  0.43555810  0.83383055     0.14930
C160        C  0.08806129  0.11532885  0.89304255    -0.14670
C161        C  0.07157718  0.16230048  0.87432621    -0.29840
H162        H  0.12720753  0.09855667  0.88402619     0.14350
H163        H  0.03347670  0.18037069  0.88452334     0.14930
C164        C  0.36780751  0.11884279  0.91291420    -0.14670
C165        C  0.32558794  0.09501555  0.89154808    -0.29840
H166        H  0.38045753  0.15845171  0.90181894     0.14350
H167        H  0.31086317  0.05634192  0.90310175     0.14930
C168        C  0.41978977  0.37672323  0.88902620    -0.14670
C169        C  0.43365602  0.32795403  0.87458591    -0.29840
H170        H  0.38245358  0.39531424  0.87673741     0.14350
H171        H  0.47140350  0.30911759  0.88545627     0.14930
C172        C  0.22626751  0.45852545  0.44583210    -0.11510
C173        C  0.21077566  0.42899336  0.41599191    -0.13070
C174        C  0.28684725  0.03839055  0.45083192    -0.11510
C175        C  0.30277379  0.07020585  0.42214853    -0.13070
C176        C  0.20438049  0.42787800  0.57512561    -0.11510
C177        C  0.22143659  0.45826133  0.54588855    -0.13070
C178        C  0.28915149  0.03619491  0.55076877    -0.11510
C179        C  0.30401689  0.06706704  0.57983208    -0.13070
C180        C  0.46411251  0.28357285  0.44886029    -0.11510
C181        C  0.43466306  0.30010119  0.41842141    -0.13070
C182        C  0.07207454  0.20553398  0.41978872    -0.11510
C183        C  0.04131231  0.22213538  0.44869078    -0.13070
C184        C  0.43459328  0.30002455  0.57799968    -0.11510
C185        C  0.46533700  0.28497499  0.54873027    -0.13070
C186        C  0.06949704  0.19876294  0.57698590    -0.11510
C187        C  0.03864694  0.21630682  0.54807011    -0.13070
C188        C  0.50312491  0.75455952  0.52372415     0.02330
C189        C  0.00096007  0.75630530  0.47796493     0.02330
C190        C  0.25547523  0.49697056  0.47336773     0.02330
C191        C  0.25874447  0.99735068  0.52447067     0.02330
C192        C  0.21682227  0.89654853  0.62419730     0.44220
N193        N  0.20150982  0.84305593  0.68111966     0.03110
C194        C  0.40689351  0.73577316  0.81811106    -0.04760
H195        H  0.41793770  0.70026765  0.63608709     0.08600
C196        C  0.24655932  0.60139020  0.64187877    -0.05120
Co197      Co  0.30392108  0.82593715  0.73457842     0.74180
N198        N  0.36994797  0.74748523  0.68200075    -0.24290
Co199      Co  0.34286189  0.69310424  0.72969510     0.74070
C200        C  0.29652530  0.59633102  0.61703626     0.44320
N201        N  0.15521190  0.68962442  0.67716159     0.02730
N202        N  0.31118830  0.64432023  0.67640808     0.02830
N203        N  0.37447509  0.81985895  0.81869693    -0.45140
H204        H  0.30564938  0.90786619  0.64478412     0.08590
N205        N  0.35658682  0.79835165  0.68287477     0.03120
N206        N  0.31309307  0.64024692  0.77811721     0.02860
C207        C  0.30904502  0.58783549  0.83689106     0.44460
N208        N  0.14232980  0.74044014  0.67976031    -0.23750
C209        C  0.25249099  0.88508717  0.82155531    -0.04670
N210        N  0.17771407  0.86623890  0.64452360    -0.44870
N211        N  0.34215371  0.61970148  0.81228948    -0.45080
C212        C  0.19670834  0.88886745  0.83945332     0.44240
N213        N  0.35405196  0.79294107  0.78411696     0.03110
N214        N  0.14109054  0.73257579  0.78044688    -0.23770
N215        N  0.25308584  0.85662886  0.68464939    -0.24260
N216        N  0.15752034  0.68268084  0.77821414     0.02750
H217        H  0.08820791  0.77215981  0.82893484     0.08640
H218        H  0.21797158  0.57099608  0.82431624     0.08670
N219        N  0.37157272  0.74332453  0.78263159    -0.24310
N220        N  0.25924684  0.63160077  0.67758086    -0.23930
N221        N  0.19762844  0.83630905  0.78217951     0.03110
C222        C  0.40566695  0.78945461  0.62297893     0.44510
C223        C  0.10950588  0.75420819  0.64507446    -0.05180
N224        N  0.26194691  0.62461695  0.77833107    -0.23920
H225        H  0.20697048  0.58488734  0.63447440     0.08660
N226        N  0.37736707  0.82553055  0.64734860    -0.45150
H227        H  0.09211913  0.79322359  0.63887578     0.08640
C228        C  0.10749797  0.68251263  0.83807107     0.44340
C229        C  0.26607026  0.89050424  0.65067906    -0.04670
Co230      Co  0.16943011  0.78864637  0.73081360     0.73820
N231        N  0.13204511  0.66685789  0.64077702    -0.44860
C232        C  0.40773538  0.78684188  0.84229176     0.44610
N233        N  0.16576853  0.85743179  0.81323364    -0.44850
Co234      Co  0.20776105  0.65598767  0.72778913     0.73890
C235        C  0.25545325  0.59033035  0.81439304    -0.05180
C236        C  0.40125219  0.73833366  0.64569586    -0.04740
N237        N  0.24866067  0.85169681  0.78538834    -0.24270
N238        N  0.33585058  0.62333861  0.63998878    -0.45030
H239        H  0.42864357  0.69936157  0.82613472     0.08620
C240        C  0.10822802  0.73640331  0.81751144    -0.05160
Cl241      Cl  0.25602230  0.74093875  0.73080727    -0.48160
C242        C  0.10313614  0.70613645  0.61943834     0.44370
H243        H  0.28870916  0.90589998  0.83234132     0.08580
N244        N  0.13854077  0.65188560  0.81149540    -0.44870
C245        C  0.09998475  0.70586888  0.38156464     0.44220
N246        N  0.13650023  0.73866275  0.32110114     0.03110
C247        C  0.34119568  0.64859686  0.18164491    -0.04760
H248        H  0.38146524  0.64437272  0.36767566     0.08600
C249        C  0.36649374  0.84055982  0.35613935    -0.05120
Co250      Co  0.20881931  0.66438973  0.27000935     0.74180
N251        N  0.31441531  0.65944416  0.32027817    -0.24290
Co252      Co  0.33980990  0.71446299  0.26896879     0.74070
C253        C  0.40005199  0.79922994  0.37846285     0.44320
N254        N  0.23598603  0.86515340  0.31870055     0.02730
N255        N  0.36312618  0.76725999  0.31834585     0.02830
N256        N  0.25650442  0.61355015  0.18049463    -0.45140
H257        H  0.14084428  0.62406990  0.37089152     0.08590
N258        N  0.26423073  0.64108903  0.31935850     0.03120
N259        N  0.36253589  0.77021361  0.21785487     0.02860
C260        C  0.39673958  0.80942175  0.15864676     0.44460
N261        N  0.18613888  0.84617926  0.32199367    -0.23750
C262        C  0.13484809  0.66224081  0.18550640    -0.04670
N263        N  0.10396903  0.74998457  0.35551140    -0.44860
N264        N  0.39814016  0.76389416  0.18408390    -0.45080
C265        C  0.09868572  0.69876074  0.16092991     0.44240
N266        N  0.26450540  0.64306821  0.21779762     0.03110
N267        N  0.18077081  0.84585868  0.22127279    -0.23770
N268        N  0.15472439  0.68925339  0.32219026    -0.24260
N269        N  0.22995732  0.86607675  0.21762060     0.02750
H270        H  0.10622869  0.85674947  0.18397205     0.08640
H271        H  0.34959332  0.88651380  0.17201306     0.08670
N272        N  0.31382090  0.66350868  0.21879036    -0.24310
N273        N  0.34492812  0.81669907  0.31875986    -0.23930
N274        N  0.13319047  0.73819339  0.21984311     0.03110
C275        C  0.29858464  0.60329252  0.37896861     0.44510
C276        C  0.16371072  0.86644065  0.36055386    -0.05180
N277        N  0.34040565  0.81801755  0.21691183    -0.23920
H278        H  0.35883432  0.88092450  0.36677937     0.08660
N279        N  0.25327330  0.60763323  0.35352286    -0.45150
H280        H  0.12328606  0.85828356  0.37323510     0.08640
C281        C  0.18305149  0.90249040  0.16318712     0.44340
C282        C  0.13348115  0.66477940  0.35992993    -0.04670
Co283      Co  0.15791353  0.79268926  0.27112321     0.73820
N284        N  0.24948285  0.89712602  0.35253456    -0.44860
C285        C  0.30328691  0.61642089  0.15596945     0.44610
N286        N  0.09895972  0.74520392  0.18443111    -0.44850
Co287      Co  0.28851699  0.84289212  0.26766009     0.73890
C288        C  0.35915219  0.84550512  0.18059264    -0.05180
C289        C  0.33989256  0.63731598  0.35727645    -0.04740
N290        N  0.15419825  0.68993411  0.22071021    -0.24270
N291        N  0.39594985  0.75538815  0.35305824    -0.45030
H292        H  0.38243545  0.65971932  0.17327340     0.08620
C293        C  0.14873553  0.86613884  0.18871187    -0.05160
Cl294      Cl  0.24875426  0.75363251  0.26948412    -0.48160
C295        C  0.20647939  0.90010251  0.38040757     0.44370
H296        H  0.14492185  0.62123438  0.17878508     0.08580
N297        N  0.23350887  0.90068614  0.18236463    -0.44870
O298        O  0.09623649  0.94834265  0.94897088    -0.78370
O299        O  0.01021737  0.63685340  0.03495970    -0.78400
O300        O  0.00896911  0.55872343  0.90522498    -0.78400
O301        O  0.02401993  0.95872225  0.09228220    -0.78350
O302        O  0.06023281  0.57959533  0.96591768    -0.78470
O303        O  0.09206171  0.95380448  0.04419241    -0.78390
O304        O  0.03093153  0.56121097  0.07173425    -0.78370
O305        O  0.03186392  0.95434161  0.89557827    -0.78410
C306        C  0.08160073  0.94891295  0.90701793     1.11320
C307        C  0.03532929  0.61227034  0.06722923     1.11200
C308        C  0.05067830  0.58121599  0.92282636     1.11340
C309        C  0.07460342  0.95563853  0.08505842     1.11220
O310        O  0.46393184  0.89560646  0.02317867    -0.78370
O311        O  0.44005661  0.59970090  0.95061361    -0.78450
O312        O  0.42711385  0.93251031  0.93400606    -0.78390
O313        O  0.39115375  0.53774238  0.05211780    -0.78370
O314        O  0.43386762  0.61358146  0.04303419    -0.78420
O315        O  0.49968500  0.88256689  0.94301872    -0.78380
O316        O  0.48840187  0.92389282  0.08901137    -0.78340
O317        O  0.41172416  0.51671311  0.94176315    -0.78410
Co318      Co  0.04522054  0.92105045  0.99630917     1.51530
Co319      Co  0.99726406  0.56964264  0.00621645     1.51690
Co320      Co  0.97038374  0.99326375  0.92561302     1.51570
Co321      Co  0.97541142  0.50199328  0.05313116     1.51470
O322        O  0.00073221  0.49187493  0.98975708    -1.40310
C323        C  0.46024092  0.89301405  0.06583056     1.11240
C324        C  0.40484817  0.56657021  0.93632495     1.11330
C325        C  0.45086126  0.88828569  0.92897392     1.11270
C326        C  0.39229483  0.58753629  0.05583591     1.11250
C327        C  0.16306099  0.93449811  0.12359491    -0.14670
C328        C  0.11072645  0.94988397  0.12524393    -0.29840
H329        H  0.18592331  0.93555721  0.09162317     0.14350
H330        H  0.09024264  0.94951349  0.15848749     0.14930
C331        C  0.06447921  0.68518620  0.12026682    -0.14670
C332        C  0.07327717  0.63871701  0.09881550    -0.29840
H333        H  0.03022917  0.71030192  0.11066672     0.14350
H334        H  0.10729378  0.61397278  0.10945951     0.14930
C335        C  0.35081027  0.61545187  0.08289483    -0.14670
C336        C  0.31656287  0.59021320  0.11212383    -0.29840
H337        H  0.35746539  0.65791068  0.08710153     0.14350
H338        H  0.30800305  0.54805385  0.10888083     0.14930
C339        C  0.43696207  0.82607402  0.12430410    -0.14670
C340        C  0.42161063  0.85738511  0.08874178    -0.29840
H341        H  0.47969657  0.81895941  0.13159536     0.14350
H342        H  0.37880458  0.86242610  0.08043634     0.14930
C343        C  0.17231996  0.92145279  0.87602247    -0.14670
C344        C  0.12010357  0.93641950  0.86999054    -0.29840
H345        H  0.19329818  0.92638970  0.90873448     0.14350
H346        H  0.10179409  0.93234636  0.83593561     0.14930
C347        C  0.08723805  0.61045536  0.89220859    -0.14670
C348        C  0.07605174  0.66018244  0.87686005    -0.29840
H349        H  0.12152160  0.58844557  0.87870095     0.14350
H350        H  0.04211999  0.68244329  0.89066642     0.14930
C351        C  0.36037204  0.58881597  0.90772284    -0.14670
C352        C  0.32786816  0.56073793  0.87969251    -0.29840
H353        H  0.36144707  0.63187747  0.90293610     0.14350
H354        H  0.32445448  0.51777983  0.88299286     0.14930
C355        C  0.41987671  0.84665486  0.90537768    -0.14670
C356        C  0.44093937  0.80627483  0.88125152    -0.29840
H357        H  0.37698319  0.85588907  0.90063108     0.14350
H358        H  0.48323825  0.79463714  0.88472183     0.14930
C359        C  0.22648704  0.96011784  0.45122410    -0.11510
C360        C  0.20895776  0.93051884  0.42212548    -0.13070
C361        C  0.28550072  0.53694253  0.44752094    -0.11510
C362        C  0.30052097  0.56926703  0.41913027    -0.13070
C363        C  0.21410331  0.92779300  0.58211533    -0.11510
C364        C  0.22911837  0.95807251  0.55186033    -0.13070
C365        C  0.28462601  0.53423454  0.54723084    -0.11510
C366        C  0.30053615  0.56451437  0.57638947    -0.13070
C367        C  0.46197760  0.78328627  0.45020108    -0.11510
C368        C  0.43140342  0.79914810  0.42033881    -0.13070
C369        C  0.06793076  0.70582752  0.42277601    -0.11510
C370        C  0.03775038  0.72370818  0.45140232    -0.13070
C371        C  0.43489882  0.79739055  0.58100088    -0.11510
C372        C  0.46461778  0.78444816  0.55031278    -0.13070
C373        C  0.06954701  0.70364118  0.57908323    -0.11510
C374        C  0.03831543  0.72122159  0.55052314    -0.13070
C375        C  0.00154734  0.25025154  0.52206551     0.02330
C376        C  0.50238516  0.25251798  0.47635013     0.02330
C377        C  0.76061706  0.00066475  0.47677433     0.02330
C378        C  0.76258385  0.49916555  0.52588095     0.02330
C379        C  0.71689627  0.40065625  0.62526625     0.44220
N380        N  0.70149722  0.34806338  0.68288111     0.03110
C381        C  0.90799424  0.24236435  0.81940860    -0.04760
H382        H  0.91959999  0.20497022  0.63943902     0.08600
C383        C  0.75034930  0.10581774  0.64488250    -0.05120
Co384      Co  0.80408378  0.33268400  0.73637193     0.74180
N385        N  0.87138371  0.25384805  0.68375065    -0.24290
Co386      Co  0.84469587  0.20029701  0.73169643     0.74070
C387        C  0.80049858  0.10149560  0.62005331     0.44320
N388        N  0.65750378  0.19369297  0.67867456     0.02730
N389        N  0.81397373  0.15035495  0.67909661     0.02830
N390        N  0.87477691  0.32615015  0.82193587    -0.45140
H391        H  0.80543650  0.41298717  0.64618686     0.08590
N392        N  0.85782193  0.30471061  0.68365972     0.03120
N393        N  0.81565691  0.14895988  0.78090776     0.02860
C394        C  0.81073528  0.10693199  0.84532069     0.44460
N395        N  0.64385597  0.24438932  0.68098472    -0.23750
C396        C  0.74973992  0.39018777  0.82482160    -0.04670
N397        N  0.67791733  0.37020984  0.64568379    -0.44870
N398        N  0.84409862  0.13442663  0.81754987    -0.45080
C399        C  0.69449582  0.38932636  0.84499860     0.44240
N400        N  0.85495125  0.30022465  0.78634628     0.03110
N401        N  0.64074076  0.23654325  0.78158447    -0.23770
N402        N  0.75288842  0.36229866  0.68651108    -0.24260
N403        N  0.65860791  0.18713088  0.77990938     0.02750
H404        H  0.58384705  0.27436783  0.82785956     0.08640
H405        H  0.72003570  0.08775505  0.83399484     0.08670
N406        N  0.87295399  0.25083954  0.78404498    -0.24310
N407        N  0.76233032  0.13669019  0.68040048    -0.23930
N408        N  0.69660493  0.34055988  0.78481432     0.03110
C409        C  0.90755834  0.29339354  0.62369813     0.44510
C410        C  0.61148100  0.25763211  0.64581032    -0.05180
N411        N  0.76459628  0.13318570  0.78214978    -0.23920
H412        H  0.71106719  0.08864236  0.63745643     0.08660
N413        N  0.87869458  0.33044834  0.64711893    -0.45150
H414        H  0.59367507  0.29640134  0.63930323     0.08640
C415        C  0.60576912  0.18538765  0.83797454     0.44340
C416        C  0.76586520  0.39565106  0.65219385    -0.04670
Co417      Co  0.66952712  0.29307594  0.73247080     0.73820
N418        N  0.63536249  0.17059264  0.64195957    -0.44860
C419        C  0.90802134  0.29224193  0.84485207     0.44610
N420        N  0.66468394  0.35793195  0.81779659    -0.44850
Co421      Co  0.71014021  0.16130117  0.73021147     0.73890
C422        C  0.75776406  0.10464857  0.82174554    -0.05180
C423        C  0.90293668  0.24341770  0.64792040    -0.04740
N424        N  0.74715304  0.35781262  0.78768784    -0.24270
N425        N  0.83911598  0.12952875  0.64285776    -0.45030
H426        H  0.92964062  0.20575806  0.82690411     0.08620
C427        C  0.60577412  0.23930153  0.81734466    -0.05160
Cl428      Cl  0.75709649  0.24695855  0.73268871    -0.48160
C429        C  0.60627431  0.20945313  0.62009629     0.44370
H430        H  0.78546199  0.41121057  0.83644766     0.08580
N431        N  0.63884858  0.15571107  0.81243812    -0.44870
C432        C  0.60500573  0.20691667  0.38196269     0.44220
N433        N  0.64195857  0.24090460  0.32231858     0.03110
C434        C  0.84716061  0.14302123  0.18701557    -0.04760
H435        H  0.88625480  0.14847150  0.36931064     0.08600
C436        C  0.87238114  0.34470475  0.35370546    -0.05120
Co437      Co  0.71372636  0.16633951  0.27150831     0.74180
N438        N  0.81929382  0.16317864  0.32164199    -0.24290
Co439      Co  0.84442128  0.21722331  0.26833398     0.74070
C440        C  0.90630065  0.30366835  0.37601338     0.44320
N441        N  0.74153804  0.36824453  0.31789713     0.02730
N442        N  0.86896055  0.27115334  0.31629083     0.02830
N443        N  0.76414245  0.10416070  0.19038420    -0.45140
H444        H  0.64509528  0.12518170  0.37016750     0.08590
N445        N  0.76902933  0.14477864  0.32121747     0.03120
N446        N  0.86590438  0.27204958  0.21502740     0.02860
C447        C  0.89655375  0.31041878  0.15345375     0.44460
N448        N  0.69205576  0.34855577  0.32228098    -0.23750
C449        C  0.64201452  0.16516908  0.18427221    -0.04670
N450        N  0.60917802  0.25169385  0.35670509    -0.44860
N451        N  0.89858119  0.26476520  0.17909085    -0.45080
C452        C  0.60667647  0.20250040  0.15964428     0.44240
N453        N  0.76932301  0.14243115  0.22130432     0.03110
N454        N  0.68507862  0.34723806  0.22198535    -0.23770
N455        N  0.65971005  0.19142331  0.32284959    -0.24260
N456        N  0.73349197  0.36849982  0.21694645     0.02750
H457        H  0.60866911  0.35673805  0.18990433     0.08640
H458        H  0.85040582  0.38779207  0.16855147     0.08670
N459        N  0.81797658  0.16424669  0.22042518    -0.24310
N460        N  0.85065225  0.32051518  0.31655190    -0.23930
N461        N  0.63827467  0.23975493  0.22081133     0.03110
C462        C  0.80307607  0.10791568  0.38143932     0.44510
C463        C  0.67033709  0.36879672  0.36113383    -0.05180
N464        N  0.84427102  0.32014437  0.21463646    -0.23920
H465        H  0.86439206  0.38500376  0.36435027     0.08660
N466        N  0.75796254  0.11199332  0.35582287    -0.45150
H467        H  0.63036683  0.36016778  0.37460363     0.08640
C468        C  0.68337132  0.40376668  0.16351162     0.44340
C469        C  0.63814342  0.16619733  0.35993258    -0.04670
Co470      Co  0.66315651  0.29454777  0.27208278     0.73820
N471        N  0.75540978  0.40067472  0.35130665    -0.44860
C472        C  0.81157863  0.10387378  0.16700345     0.44610
N473        N  0.60552208  0.24784638  0.18456428    -0.44850
Co474      Co  0.79329976  0.34580021  0.26612935     0.73890
C475        C  0.86103907  0.34708486  0.17730196    -0.05180
C476        C  0.84460440  0.14153892  0.35907695    -0.04740
N477        N  0.65957608  0.19154193  0.22111974    -0.24270
N478        N  0.90199340  0.25960912  0.35092492    -0.45030
H479        H  0.88939146  0.15144626  0.17984816     0.08620
C480        C  0.65125593  0.36678768  0.19084008    -0.05160
Cl481      Cl  0.75369295  0.25599530  0.26950215    -0.48160
C482        C  0.71306586  0.40330135  0.37995434     0.44370
H483        H  0.65295735  0.12478674  0.17588456     0.08580
N484        N  0.73445021  0.40377239  0.18193736    -0.44870
O485        O  0.57288222  0.38760299  0.97434463    -0.78370
O486        O  0.52187397  0.13919070  0.03073354    -0.78400
O487        O  0.50897227  0.06569348  0.90589415    -0.78400
O488        O  0.52391736  0.46166543  0.09535620    -0.78350
O489        O  0.56320812  0.07353060  0.96555786    -0.78470
O490        O  0.58555130  0.46503024  0.03998242    -0.78390
O491        O  0.55159690  0.06808855  0.07058163    -0.78370
O492        O  0.56911942  0.46286000  0.93408151    -0.78410
C493        C  0.59042247  0.41606770  0.94119826     1.11320
C494        C  0.55206812  0.11875535  0.06203974     1.11200
C495        C  0.55254855  0.08312811  0.92366386     1.11340
C496        C  0.57303043  0.45737178  0.08182358     1.11220
O497        O  0.99464622  0.38557422  0.04396664    -0.78370
O498        O  0.95084913  0.10516259  0.95840579    -0.78450
O499        O  0.92703231  0.42900892  0.94355933    -0.78390
O500        O  0.93179731  0.01680711  0.10430388    -0.78370
O501        O  0.92625037  0.06894627  0.04187284    -0.78420
O502        O  0.99987667  0.37879967  0.94935106    -0.78380
O503        O  0.92616189  0.44209160  0.04326363    -0.78340
O504        O  0.90622551  0.03233199  0.94719146    -0.78410
Co505      Co  0.52793462  0.44256472  0.99696193     1.51530
Co506      Co  0.49860659  0.07319730  0.00526232     1.51690
Co507      Co  0.48766648  0.48935569  0.94297258     1.51570
Co508      Co  0.51548938  0.99384499  0.06658191     1.51470
O509        O  0.48654309  0.99705296  0.99421517    -1.40310
C510        C  0.94523418  0.39670246  0.05342947     1.11240
C511        C  0.90916483  0.08196517  0.94267737     1.11330
C512        C  0.95007943  0.38486970  0.93829175     1.11270
C513        C  0.90785717  0.05326974  0.08138304     1.11250
C514        C  0.66052797  0.43746371  0.12542834    -0.14670
C515        C  0.60889856  0.42725220  0.11256064    -0.29840
H516        H  0.68311837  0.47068630  0.11079502     0.14350
H517        H  0.58745865  0.39352977  0.12703439     0.14930
C518        C  0.57411566  0.19046600  0.11763593    -0.14670
C519        C  0.58982598  0.15042850  0.09019531    -0.29840
H520        H  0.53486214  0.20946542  0.11266516     0.14350
H521        H  0.62893906  0.13173919  0.09679753     0.14930
C522        C  0.86121091  0.08168965  0.09990686    -0.14670
C523        C  0.83135965  0.06369023  0.13528762    -0.29840
H524        H  0.85687920  0.12301498  0.08862946     0.14350
H525        H  0.83320624  0.02237120  0.14674790     0.14930
C526        C  0.92970828  0.32441041  0.11233999    -0.14670
C527        C  0.91077535  0.36175898  0.08247293    -0.29840
H528        H  0.97116616  0.30996189  0.11020543     0.14350
H529        H  0.86875016  0.37445556  0.08570137     0.14930
C530        C  0.66938409  0.41782350  0.88443193    -0.14670
C531        C  0.63060849  0.39229689  0.90924578    -0.29840
H532        H  0.67889066  0.45933133  0.89038422     0.14350
H533        H  0.62563375  0.34977597  0.90412454     0.14930
C534        C  0.58911500  0.11603595  0.89567084    -0.14670
C535        C  0.57227382  0.16145575  0.87469625    -0.29840
H536        H  0.63002191  0.10116500  0.89031790     0.14350
H537        H  0.53264339  0.17826268  0.88203729     0.14930
C538        C  0.87054375  0.11049873  0.91226055    -0.14670
C539        C  0.82917316  0.08576425  0.89046726    -0.29840
H540        H  0.88226355  0.15040188  0.90119007     0.14350
H541        H  0.81521430  0.04670887  0.90171082     0.14930
C542        C  0.91864290  0.34457741  0.91339895    -0.14670
C543        C  0.94054990  0.30857298  0.88518160    -0.29840
H544        H  0.87539765  0.35289750  0.91002629     0.14350
H545        H  0.98340290  0.29851890  0.88696168     0.14930
C546        C  0.73388484  0.46246444  0.45138663    -0.11510
C547        C  0.71639674  0.43334983  0.42187600    -0.13070
C548        C  0.78941026  0.04116268  0.45011063    -0.11510
C549        C  0.80454069  0.07362827  0.42168809    -0.13070
C550        C  0.71478568  0.43058322  0.58243126    -0.11510
C551        C  0.73112539  0.46025601  0.55220357    -0.13070
C552        C  0.79118497  0.03909431  0.54997457    -0.11510
C553        C  0.80551053  0.06992133  0.57929031    -0.13070
C554        C  0.96551398  0.28573972  0.44876871    -0.11510
C555        C  0.93631991  0.30321232  0.41857354    -0.13070
C556        C  0.57199081  0.20504202  0.42234865    -0.11510
C557        C  0.54066627  0.22115653  0.45067585    -0.13070
C558        C  0.93611529  0.29801904  0.58046795    -0.11510
C559        C  0.96449049  0.28203016  0.54950227    -0.13070
C560        C  0.57337723  0.20642030  0.57921219    -0.11510
C561        C  0.54204726  0.22242481  0.54994896    -0.13070
C562        C  0.00111119  0.75496626  0.52450186     0.02330
C563        C  0.50161840  0.75360924  0.47732398     0.02330
C564        C  0.76412787  0.50021108  0.47914147     0.02330
C565        C  0.76150807  0.99978205  0.52356368     0.02330
C566        C  0.71936731  0.90384994  0.62638070     0.44220
N567        N  0.70365216  0.85204886  0.68434466     0.03110
C568        C  0.90872842  0.74222135  0.82028047    -0.04760
H569        H  0.91945542  0.70797835  0.63956680     0.08600
C570        C  0.75013690  0.60865914  0.64557857    -0.05120
Co571      Co  0.80600239  0.83503805  0.73833637     0.74180
N572        N  0.87204105  0.75621152  0.68502103    -0.24290
Co573      Co  0.84498712  0.70217568  0.73252587     0.74070
C574        C  0.80055444  0.60302262  0.62139041     0.44320
N575        N  0.65858811  0.69837710  0.67915782     0.02730
N576        N  0.81402892  0.65285249  0.67973875     0.02830
N577        N  0.87662596  0.82637556  0.82378648    -0.45140
H578        H  0.80801023  0.91590377  0.64738091     0.08590
N579        N  0.85905771  0.80720994  0.68577194     0.03120
N580        N  0.81522157  0.65069559  0.78140176     0.02860
C581        C  0.80947735  0.60795120  0.84547000     0.44460
N582        N  0.64505401  0.74909582  0.68167237    -0.23750
C583        C  0.75349035  0.89146603  0.82754810    -0.04670
N584        N  0.68033312  0.87371635  0.64688324    -0.44870
N585        N  0.84333596  0.63527058  0.81797873    -0.45080
C586        C  0.69752653  0.89462639  0.84575051     0.44240
N587        N  0.85630872  0.80122378  0.78799650     0.03110
N588        N  0.64258937  0.74146899  0.78258565    -0.23770
N589        N  0.75509579  0.86602040  0.68822208    -0.24260
N590        N  0.65890114  0.69169078  0.77946339     0.02750
H591        H  0.58956307  0.77985623  0.83181071     0.08640
H592        H  0.71845682  0.59044918  0.83381587     0.08670
N593        N  0.87368720  0.75168711  0.78515296    -0.24310
N594        N  0.76219350  0.63997576  0.68075692    -0.23930
N595        N  0.69871462  0.84527294  0.78583578     0.03110
C596        C  0.90817694  0.79697300  0.62563809     0.44510
C597        C  0.61287475  0.76238680  0.64631783    -0.05180
N598        N  0.76389123  0.63578297  0.78243923    -0.23920
H599        H  0.71077524  0.59159631  0.63824958     0.08660
N600        N  0.87997681  0.83367861  0.64975611    -0.45150
H601        H  0.59517213  0.80117753  0.63970526     0.08640
C602        C  0.60794821  0.68971864  0.83855991     0.44340
C603        C  0.76828736  0.89903500  0.65362196    -0.04670
Co604      Co  0.67123737  0.79766418  0.73353956     0.73820
N605        N  0.63662734  0.67530468  0.64243200    -0.44860
C606        C  0.90946816  0.79165665  0.84619811     0.44610
N607        N  0.66677338  0.86484499  0.81779839    -0.44850
Co608      Co  0.71023066  0.66521557  0.73035209     0.73890
C609        C  0.75649214  0.60689280  0.82178860    -0.05180
C610        C  0.90322162  0.74634393  0.64884653    -0.04740
N611        N  0.74990401  0.86013126  0.78981576    -0.24270
N612        N  0.83937226  0.63077341  0.64419779    -0.45030
H613        H  0.92997293  0.70526902  0.82727047     0.08620
C614        C  0.60960759  0.74442164  0.81971596    -0.05160
Cl615      Cl  0.75810466  0.75014095  0.73367580    -0.48160
C616        C  0.60784768  0.71415269  0.62049027     0.44370
H617        H  0.78986853  0.91099416  0.83966943     0.08580
N618        N  0.63926090  0.66005699  0.81160625    -0.44870
C619        C  0.60767930  0.70897270  0.38453635     0.44220
N620        N  0.64501719  0.74063256  0.32413347     0.03110
C621        C  0.85260921  0.64082636  0.19282991    -0.04760
H622        H  0.89329397  0.64992729  0.37396332     0.08600
C623        C  0.87212294  0.84841601  0.35488563    -0.05120
Co624      Co  0.71969344  0.66488337  0.27799728     0.74180
N625        N  0.82527858  0.66523900  0.32745088    -0.24290
Co626      Co  0.84900358  0.71786907  0.27224685     0.74070
C627        C  0.90710610  0.80871548  0.37805934     0.44320
N628        N  0.74109589  0.86911255  0.31573478     0.02730
N629        N  0.87168553  0.77422665  0.31841853     0.02830
N630        N  0.77022913  0.60077606  0.19798787    -0.45140
H631        H  0.65101751  0.62805126  0.37746653     0.08590
N632        N  0.77499675  0.64704892  0.32807811     0.03120
N633        N  0.86952070  0.77120788  0.21714817     0.02860
C634        C  0.89946553  0.80876698  0.15472127     0.44460
N635        N  0.69174339  0.84904688  0.31946910    -0.23750
C636        C  0.64602693  0.65312673  0.19528746    -0.04670
N637        N  0.61071354  0.75226252  0.35721961    -0.44860
N638        N  0.90241134  0.76372573  0.18130049    -0.45080
C639        C  0.60838289  0.68609006  0.16934361     0.44240
N640        N  0.77554375  0.63954145  0.22841556     0.03110
N641        N  0.68718355  0.84152623  0.21770008    -0.23770
N642        N  0.66479789  0.69193944  0.32763147    -0.24260
N643        N  0.73555776  0.86369869  0.21440289     0.02750
H644        H  0.61582158  0.84263690  0.17454222     0.08640
H645        H  0.85185634  0.88547658  0.16840843     0.08670
N646        N  0.82371199  0.66227792  0.22631613    -0.24310
N647        N  0.85169940  0.82301054  0.31775814    -0.23930
N648        N  0.64292009  0.73246126  0.22354578     0.03110
C649        C  0.80985297  0.61032372  0.38796573     0.44510
C650        C  0.66899312  0.86940329  0.35785219    -0.05180
N651        N  0.84696990  0.81886893  0.21573180    -0.23920
H652        H  0.86271621  0.88862084  0.36496958     0.08660
N653        N  0.76445571  0.61450919  0.36290147    -0.45150
H654        H  0.62924164  0.85972498  0.37125660     0.08640
C655        C  0.69213729  0.88871750  0.15329988     0.44340
C656        C  0.64314799  0.66826153  0.36536846    -0.04670
Co657      Co  0.66529265  0.79167431  0.27118874     0.73820
N658        N  0.75387480  0.90202299  0.34913062    -0.44860
C659        C  0.81720934  0.60076884  0.17398223     0.44610
N660        N  0.60806782  0.73514117  0.18830446    -0.44850
Co661      Co  0.79449981  0.84518886  0.26575466     0.73890
C662        C  0.86332141  0.84522201  0.17795488    -0.05180
C663        C  0.85123575  0.64360441  0.36466997    -0.04740
N664        N  0.66511731  0.68485416  0.22771069    -0.24270
N665        N  0.90445114  0.76422946  0.35351110    -0.45030
H666        H  0.89431604  0.65024874  0.18447517     0.08620
C667        C  0.65714663  0.85509130  0.18103683    -0.05160
Cl668      Cl  0.75714689  0.75494928  0.27180713    -0.48160
C669        C  0.71083199  0.90457987  0.37707982     0.44370
H670        H  0.65712703  0.61187091  0.19087653     0.08580
N671        N  0.74019342  0.89341660  0.17607041    -0.44870
O672        O  0.58941194  0.95842560  0.95587060    -0.78370
O673        O  0.54767735  0.59768237  0.05245601    -0.78400
O674        O  0.51138291  0.55070853  0.90437454    -0.78400
O675        O  0.59008213  0.96043062  0.05251560    -0.78350
O676        O  0.55738007  0.59060919  0.95839251    -0.78470
O677        O  0.57602624  0.88064640  0.02181153    -0.78390
O678        O  0.49014140  0.56180816  0.10278476    -0.78370
O679        O  0.53204175  0.96221898  0.89813726    -0.78410
C680        C  0.58037169  0.95710600  0.91283266     1.11320
C681        C  0.53139489  0.59036046  0.09341291     1.11200
C682        C  0.54725731  0.58344765  0.91633384     1.11340
C683        C  0.60226074  0.91036016  0.04952359     1.11220
O684        O  0.99542877  0.88409362  0.04365384    -0.78370
O685        O  0.94847368  0.60582958  0.95935063    -0.78450
O686        O  0.93030389  0.92852750  0.94117257    -0.78390
O687        O  0.93675071  0.51949413  0.10715972    -0.78370
O688        O  0.92494484  0.56867767  0.04368104    -0.78420
O689        O  0.00287785  0.87810431  0.94918948    -0.78380
O690        O  0.92542035  0.93860485  0.04063346    -0.78340
O691        O  0.90335669  0.53317062  0.94953505    -0.78410
Co692      Co  0.52733500  0.93062101  0.99370875     1.51530
Co693      Co  0.49583370  0.59496766  0.00116410     1.51690
Co694      Co  0.46771356  0.99940902  0.92505810     1.51570
Co695      Co  0.45775613  0.49930253  0.06997484     1.51470
O696        O  0.49206281  0.51384439  0.00831162    -1.40310
C697        C  0.94556307  0.89406622  0.05234828     1.11240
C698        C  0.90657796  0.58267035  0.94410212     1.11330
C699        C  0.95320852  0.88405133  0.93774443     1.11270
C700        C  0.90974015  0.55392780  0.08440833     1.11250
C701        C  0.67505461  0.91446779  0.10942617    -0.14670
C702        C  0.64397620  0.88634436  0.08009171    -0.29840
H703        H  0.67925811  0.95730852  0.10554130     0.14350
H704        H  0.64242142  0.84327057  0.08418765     0.14930
C705        C  0.57412841  0.66679749  0.13151932    -0.14670
C706        C  0.56026331  0.61504876  0.13151028    -0.29840
H707        H  0.56128757  0.69379920  0.10391288     0.14350
H708        H  0.56872589  0.58977295  0.16147787     0.14930
C709        C  0.86294887  0.58065942  0.10440691    -0.14670
C710        C  0.83598760  0.56154579  0.14103389    -0.29840
H711        H  0.85646202  0.62177403  0.09332063     0.14350
H712        H  0.84021562  0.52032646  0.15231875     0.14930
C713        C  0.93189394  0.82265301  0.11297333    -0.14670
C714        C  0.91207025  0.85928867  0.08264535    -0.29840
H715        H  0.97350121  0.80870156  0.11059068     0.14350
H716        H  0.86990681  0.87143313  0.08605915     0.14930
C717        C  0.67281415  0.92517640  0.88421701    -0.14670
C718        C  0.62166776  0.94343591  0.87765593    -0.29840
H719        H  0.69266557  0.92682518  0.91770829     0.14350
H720        H  0.60530392  0.94204735  0.84269596     0.14930
C721        C  0.57662782  0.61223527  0.88061572    -0.14670
C722        C  0.57879285  0.66578287  0.87780350    -0.29840
H723        H  0.59282901  0.58795699  0.85314445     0.14350
H724        H  0.55891017  0.69060141  0.90305009     0.14930
C725        C  0.86844815  0.61097986  0.91300483    -0.14670
C726        C  0.82737139  0.58637382  0.89070435    -0.29840
H727        H  0.88037031  0.65085627  0.90201960     0.14350
H728        H  0.81317095  0.54732309  0.90172309     0.14930
C729        C  0.92140687  0.84255223  0.91502641    -0.14670
C730        C  0.94285153  0.80713513  0.88613134    -0.29840
H731        H  0.87791361  0.85013116  0.91288650     0.14350
H732        H  0.98597336  0.79808439  0.88647522     0.14930
C733        C  0.73036280  0.96213370  0.44982845    -0.11510
C734        C  0.71348120  0.93342306  0.41974089    -0.13070
C735        C  0.79505157  0.54044944  0.45374943    -0.11510
C736        C  0.81176218  0.57399768  0.42689019    -0.13070
C737        C  0.71726873  0.93202661  0.58268344    -0.11510
C738        C  0.73204539  0.96066630  0.55118103    -0.13070
C739        C  0.79177031  0.53794333  0.55318406    -0.11510
C740        C  0.80587649  0.56948770  0.58194505    -0.13070
C741        C  0.96450357  0.79037495  0.45140178    -0.11510
C742        C  0.93591758  0.80887517  0.42120442    -0.13070
C743        C  0.57330120  0.70795101  0.42402168    -0.11510
C744        C  0.54083868  0.72361993  0.45154659    -0.13070
C745        C  0.93669281  0.80294177  0.58278008    -0.11510
C746        C  0.96495868  0.78740413  0.55177823    -0.13070
C747        C  0.57499613  0.71047055  0.57976147    -0.11510
C748        C  0.54317934  0.72503096  0.55045029    -0.13070
loop_ 
_geom_bond_atom_site_label_1 
_geom_bond_atom_site_label_2 
_geom_bond_distance 
_geom_bond_site_symmetry_2 
_ccdc_geom_bond_type 
C1          C185   1.445       .  S
C1          C561   1.452       .  S
C1          C376   1.346       .  D
C2          C183   1.455       .  S
C2          C554   1.448   1_455  S
C2          C375   1.350       .  D
C3          C174   1.456   1_565  S
C3          C359   1.455       .  S
C3          C191   1.353       .  D
C4          C177   1.452       .  S
C4          C365   1.454       .  S
C4          C190   1.350       .  D
C5           N23   1.359       .  A
C5           C42   1.434       .  S
C5          C176   1.435       .  S
N6           N23   1.334       .  A
N6           N28   1.319       .  A
N6          Co43   2.127       .  S
C7           N32   1.353       .  A
C7           C45   1.470       .  S
C7           H52   1.081       .  S
H8           C49   1.082       .  S
C9           N33   1.329       .  A
C9           C13   1.436       .  S
C9           H38   1.081       .  S
Co10         N28   2.034       .  S
Co10         N18   2.119       .  S
Co10         N50   2.116       .  S
Co10         N26   2.035       .  S
Co10        Cl54   2.437       .  S
N11          C49   1.328       .  A
N11          N18   1.320       .  A
N11         Co12   2.035       .  S
Co12         N15   2.123       .  S
Co12         N32   2.110       .  S
Co12         N19   2.040       .  S
Co12        Cl54   2.454       .  S
C13          N51   1.358       .  A
C13         C179   1.436       .  S
N14          N21   1.320       .  A
N14          N44   1.333       .  A
N14         Co47   2.122       .  S
N15          N33   1.318       .  A
N15          N51   1.334       .  A
N16          C45   1.339       .  A
N16          N26   1.312       .  A
H17          C42   1.081       .  S
N18          N39   1.332       .  A
N19          N37   1.319       .  A
N19          N24   1.316       .  A
C20          N24   1.338       .  A
C20          C48   1.468       .  S
C20         C165   1.469       .  S
N21          C36   1.326       .  A
N21         Co43   2.035       .  S
C22          N50   1.354       .  A
C22          C25   1.471       .  S
C22          H56   1.081       .  S
C25          N46   1.340       .  A
C25         C156   1.475       .  S
N26          N32   1.317       .  A
N27          C53   1.355       .  A
N27          N29   1.319       .  A
N27         Co43   2.127       .  S
N28          C42   1.327       .  A
N29          N57   1.314       .  A
N29         Co47   2.034       .  S
H30          C53   1.081       .  S
H31          C48   1.080       .  S
N33         Co47   2.037       .  S
N34          N46   1.314       .  A
N34          N50   1.319       .  A
N34         Co43   2.043       .  S
C35          N39   1.355       .  A
C35          C49   1.436       .  S
C35         C184   1.429       .  S
C36          C55   1.434       .  S
C36          H40   1.082       .  S
N37          C48   1.352       .  A
N37         Co47   2.118       .  S
C41          N57   1.336       .  A
C41          C53   1.477       .  S
C41         C161   1.476       .  S
Co43        Cl54   2.448       .  S
N44          C55   1.358       .  A
C45         C169   1.472       .  S
Co47        Cl54   2.440       .  S
C55         C186   1.431       .  S
C58          N76   1.336       .  A
C58          C95   1.471       .  S
C58         C182   1.439       .  S
N59          N76   1.317       .  A
N59          N81   1.319       .  A
N59         Co96   2.040       .  S
C60          N85   1.327       .  A
C60          C98   1.441       .  S
C60         H105   1.082       .  S
H61         C102   1.081       .  S
C62          N86   1.352       .  A
C62          C66   1.468       .  S
C62          H91   1.081       .  S
Co63         N81   2.125       .  S
Co63         N71   2.043       .  S
Co63        N103   2.064       .  S
Co63         N79   2.126       .  S
Co63       Cl107   2.457       .  S
N64         C102   1.355       .  A
N64          N71   1.321       .  A
N64         Co65   2.135       .  S
Co65         N68   2.041       .  S
Co65         N85   2.042       .  S
Co65         N72   2.126       .  S
Co65       Cl107   2.443       .  S
C66         N104   1.336       .  A
C66         C181   1.435       .  S
N67          N74   1.320       .  A
N67          N97   1.318       .  A
N67        Co100   2.059       .  S
N68          N86   1.319       .  A
N68         N104   1.317       .  A
N69          C98   1.360       .  A
N69          N79   1.335       .  A
H70          C95   1.081       .  S
N71          N92   1.317       .  A
N72          N90   1.321       .  A
N72          N77   1.334       .  A
C73          N77   1.359       .  A
C73         C101   1.453       .  S
C73         C152   1.487       .  S
N74          C89   1.351       .  A
N74         Co96   2.112       .  S
C75         N103   1.331       .  A
C75          C78   1.460       .  S
C75         H109   1.080       .  S
C78          N99   1.354       .  A
C78         C144   1.484       .  S
N79          N85   1.320       .  A
N80         C106   1.323       .  A
N80          N82   1.318       .  A
N80         Co96   2.034       .  S
N81          C95   1.354       .  A
N82         N110   1.335       .  A
N82        Co100   2.120       .  S
H83         C106   1.082       .  S
H84         C101   1.082       .  S
N86        Co100   2.120       .  S
N87          N99   1.330       .  A
N87         N103   1.319       .  A
N87         Co96   2.107       .  S
C88          N92   1.336       .  A
C88         C102   1.473       .  S
C88         C175   1.440       .  S
C89         C108   1.467       .  S
C89          H93   1.081       .  S
N90         C101   1.334       .  A
N90        Co100   2.067       .  S
C94         N110   1.361       .  A
C94         C106   1.442       .  S
C94         C140   1.476       .  S
Co96       Cl107   2.442       .  S
N97         C108   1.339       .  A
C98         C149   1.475       .  S
Co100      Cl107   2.454       .  S
C108        C173   1.437       .  S
O111        C119   1.266       .  A
O111       Co131   1.980       .  S
O112        C120   1.272       .  A
O112       Co132   1.918   1_455  S
O113        C121   1.280       .  A
O113       Co320   2.036   1_445  S
O114        C122   1.266       .  A
O114       Co321   1.995   1_455  S
O115        C121   1.268       .  A
O115       Co132   1.963   1_456  S
O116        C122   1.262       .  A
O116       Co131   1.990   1_554  S
O117        C120   1.290       .  A
O117       Co134   2.091   1_445  S
O118        C119   1.273       .  A
O118       Co133   2.006   1_455  S
C119        C157   1.469       .  S
C120        C145   1.466       .  S
C121        C160   1.465       .  S
C122        C141   1.470       .  S
O123        C136   1.267       .  A
O123       Co505   2.047   1_554  S
O124        C137   1.277       .  A
O124       Co506   2.035   1_556  S
O125        C138   1.263       .  A
O125       Co507   1.884       .  S
O126        C139   1.258       .  A
O126       Co508   2.013   1_545  S
O127        C139   1.245       .  A
O127       Co506   1.955       .  S
O128        C138   1.291       .  A
O128       Co505   2.100       .  S
O129        C136   1.254       .  A
O129       Co695   1.966       .  S
O130        C137   1.258       .  A
O130       Co694   1.958   1_545  S
Co131       O497   2.052   1_456  S
Co131       O502   2.041   1_455  S
Co131       O322   2.061       .  S
Co132       O498   2.016   1_554  S
Co132       O501   2.093       .  S
Co132       O135   2.017   1_644  S
Co133       O300   2.030   1_655  S
Co133       O499   1.953       .  S
Co133       O691   1.970       .  S
Co133       O322   1.993   1_655  S
Co134       O301   1.993   1_655  S
Co134       O500   1.893   1_565  S
Co134       O690   1.960       .  S
Co134       O135   1.958   1_654  S
O135       Co318   2.061       .  S
O135       Co320   1.993   1_455  S
C136        C153   1.480       .  S
C137        C164   1.471       .  S
C138        C168   1.453       .  S
C139        C148   1.477       .  S
C140        C141   1.349       .  D
C140        H142   1.085       .  S
C141        H143   1.088       .  S
C144        C145   1.342       .  D
C144        H146   1.086       .  S
C145        H147   1.083       .  S
C148        C149   1.342       .  D
C148        H150   1.089       .  S
C149        H151   1.085       .  S
C152        C153   1.348       .  D
C152        H154   1.086       .  S
C153        H155   1.088       .  S
C156        C157   1.347       .  D
C156        H158   1.085       .  S
C157        H159   1.089       .  S
C160        C161   1.352       .  D
C160        H162   1.086       .  S
C161        H163   1.086       .  S
C164        C165   1.352       .  D
C164        H166   1.087       .  S
C165        H167   1.086       .  S
C168        C169   1.345       .  D
C168        H170   1.087       .  S
C169        H171   1.086       .  S
C172        C190   1.451       .  S
C172        C173   1.208       .  T
C174        C175   1.211       .  T
C176        C177   1.208       .  T
C178        C191   1.453   1_545  S
C178        C179   1.209       .  T
C180        C376   1.450       .  S
C180        C181   1.207       .  T
C182        C183   1.210       .  T
C184        C185   1.204       .  T
C186        C187   1.206       .  T
C187        C375   1.450       .  S
C188        C372   1.442       .  S
C188        C748   1.448       .  S
C188        C563   1.344       .  D
C189        C741   1.450   1_455  S
C189        C370   1.452       .  S
C189        C562   1.347       .  D
C190        C361   1.449       .  S
C191        C364   1.455       .  S
C192        N210   1.359       .  A
C192        C229   1.438       .  S
C192        C363   1.440       .  S
N193        N210   1.334       .  A
N193        N215   1.319       .  A
N193       Co230   2.125       .  S
C194        N219   1.354       .  A
C194        C232   1.471       .  S
C194        H239   1.081       .  S
H195        C236   1.081       .  S
C196        N220   1.328       .  A
C196        C200   1.435       .  S
C196        H225   1.081       .  S
Co197       N215   2.049       .  S
Co197       N205   2.110       .  S
Co197       N237   2.117       .  S
Co197       N213   2.053       .  S
Co197      Cl241   2.444       .  S
N198        C236   1.329       .  A
N198        N205   1.320       .  A
N198       Co199   2.042       .  S
Co199       N202   2.130       .  S
Co199       N219   2.119       .  S
Co199       N206   2.054       .  S
Co199      Cl241   2.453       .  S
C200        N238   1.360       .  A
C200        C366   1.436       .  S
N201        N208   1.319       .  A
N201        N231   1.332       .  A
N201       Co234   2.117       .  S
N202        N220   1.319       .  A
N202        N238   1.334       .  A
N203        C232   1.342       .  A
N203        N213   1.315       .  A
H204        C229   1.081       .  S
N205        N226   1.330       .  A
N206        N224   1.320       .  A
N206        N211   1.317       .  A
C207        N211   1.342       .  A
C207        C235   1.470       .  S
C207        C352   1.477       .  S
N208        C223   1.328       .  A
N208       Co230   2.035       .  S
C209        N237   1.355       .  A
C209        C212   1.474       .  S
C209        H243   1.081       .  S
C212        N233   1.339       .  A
C212        C343   1.478       .  S
N213        N219   1.320       .  A
N214        C240   1.351       .  A
N214        N216   1.320       .  A
N214       Co230   2.118       .  S
N215        C229   1.331       .  A
N216        N244   1.314       .  A
N216       Co234   2.039       .  S
H217        C240   1.081       .  S
H218        C235   1.081       .  S
N220       Co234   2.034       .  S
N221        N233   1.314       .  A
N221        N237   1.318       .  A
N221       Co230   2.043       .  S
C222        N226   1.352       .  A
C222        C236   1.438       .  S
C222        C371   1.427       .  S
C223        C242   1.435       .  S
C223        H227   1.082       .  S
N224        C235   1.353       .  A
N224       Co234   2.118       .  S
C228        N244   1.338       .  A
C228        C240   1.471       .  S
C228        C348   1.471       .  S
Co230      Cl241   2.445       .  S
N231        C242   1.356       .  A
C232        C356   1.479       .  S
Co234      Cl241   2.446       .  S
C242        C373   1.430       .  S
C245        N263   1.335       .  A
C245        C282   1.470       .  S
C245        C369   1.433       .  S
N246        N263   1.316       .  A
N246        N268   1.320       .  A
N246       Co283   2.040       .  S
C247        N272   1.330       .  A
C247        C285   1.446       .  S
C247        H292   1.081       .  S
H248        C289   1.081       .  S
C249        N273   1.352       .  A
C249        C253   1.467       .  S
C249        H278   1.081       .  S
Co250       N268   2.120       .  S
Co250       N258   2.050       .  S
Co250       N290   2.052       .  S
Co250       N266   2.120       .  S
Co250      Cl294   2.449       .  S
N251        C289   1.351       .  A
N251        N258   1.320       .  A
N251       Co252   2.111       .  S
Co252       N255   2.045       .  S
Co252       N272   2.051       .  S
Co252       N259   2.100       .  S
Co252      Cl294   2.448       .  S
C253        N291   1.337       .  A
C253        C368   1.434       .  S
N254        N261   1.320       .  A
N254        N284   1.318       .  A
N254       Co287   2.052       .  S
N255        N273   1.320       .  A
N255        N291   1.317       .  A
N256        C285   1.357       .  A
N256        N266   1.333       .  A
H257        C282   1.081       .  S
N258        N279   1.317       .  A
N259        N277   1.318       .  A
N259        N264   1.327       .  A
C260        N264   1.351       .  A
C260        C288   1.451       .  S
C260        C339   1.463       .  S
N261        C276   1.354       .  A
N261       Co283   2.124       .  S
C262        N290   1.329       .  A
C262        C265   1.454       .  S
C262        H296   1.080       .  S
C265        N286   1.360       .  A
C265        C331   1.488       .  S
N266        N272   1.319       .  A
N267        C293   1.322       .  A
N267        N269   1.318       .  A
N267       Co283   2.033       .  S
N268        C282   1.353       .  A
N269        N297   1.334       .  A
N269       Co287   2.114       .  S
H270        C293   1.082       .  S
H271        C288   1.082       .  S
N273       Co287   2.122       .  S
N274        N286   1.334       .  A
N274        N290   1.318       .  A
N274       Co283   2.122       .  S
C275        N279   1.338       .  A
C275        C289   1.466       .  S
C275        C362   1.433       .  S
C276        C295   1.471       .  S
C276        H280   1.081       .  S
N277        C288   1.333       .  A
N277       Co287   2.056       .  S
C281        N297   1.359       .  A
C281        C293   1.442       .  S
C281        C327   1.473       .  S
Co283      Cl294   2.443       .  S
N284        C295   1.337       .  A
C285        C336   1.477       .  S
Co287      Cl294   2.448       .  S
C295        C360   1.440       .  S
O298        C306   1.265       .  A
O298       Co318   1.979       .  S
O299        C307   1.270       .  A
O299       Co319   1.920   1_455  S
O300        C308   1.280       .  A
O301        C309   1.266       .  A
O302        C308   1.268       .  A
O302       Co319   1.959   1_456  S
O303        C309   1.262       .  A
O303       Co318   1.988   1_554  S
O304        C307   1.292       .  A
O304       Co321   2.096   1_455  S
O305        C306   1.274       .  A
O305       Co320   2.010   1_455  S
C306        C344   1.472       .  S
C307        C332   1.470       .  S
C308        C347   1.457       .  S
C309        C328   1.466       .  S
O310        C323   1.239       .  A
O310       Co692   1.983   1_554  S
O311        C324   1.274       .  A
O311       Co693   2.004   1_556  S
O312        C325   1.266       .  A
O312       Co694   1.971       .  S
O313        C326   1.258       .  A
O313       Co695   1.966       .  S
O314        C326   1.269       .  A
O314       Co693   2.012       .  S
O315        C325   1.275       .  A
O315       Co692   2.030       .  S
O316        C323   1.243       .  A
O316       Co508   1.981       .  S
O317        C324   1.271       .  A
O317       Co507   1.992       .  S
Co318       O684   2.055   1_456  S
Co318       O689   2.036       .  S
Co319       O685   2.014   1_554  S
Co319       O688   2.089       .  S
Co319       O322   2.020   1_654  S
Co320       O686   1.951       .  S
Co320       O504   1.969   1_565  S
Co321       O687   1.892       .  S
Co321       O503   1.957       .  S
Co321       O322   1.961   1_654  S
C323        C340   1.461       .  S
C324        C351   1.474       .  S
C325        C355   1.470       .  S
C326        C335   1.474       .  S
C327        C328   1.346       .  D
C327        H329   1.086       .  S
C328        H330   1.088       .  S
C331        C332   1.349       .  D
C331        H333   1.086       .  S
C332        H334   1.084       .  S
C335        C336   1.349       .  D
C335        H337   1.088       .  S
C336        H338   1.086       .  S
C339        C340   1.339       .  D
C339        H341   1.086       .  S
C340        H342   1.087       .  S
C343        C344   1.349       .  D
C343        H345   1.085       .  S
C344        H346   1.088       .  S
C347        C348   1.347       .  D
C347        H349   1.086       .  S
C348        H350   1.086       .  S
C351        C352   1.345       .  D
C351        H353   1.089       .  S
C352        H354   1.085       .  S
C355        C356   1.345       .  D
C355        H357   1.089       .  S
C356        H358   1.085       .  S
C359        C360   1.210       .  T
C361        C362   1.206       .  T
C363        C364   1.211       .  T
C365        C366   1.209       .  T
C367        C563   1.449       .  S
C367        C368   1.207       .  T
C369        C370   1.207       .  T
C371        C372   1.202       .  T
C373        C374   1.205       .  T
C374        C562   1.449       .  S
C375        C559   1.458   1_455  S
C376        C557   1.444       .  S
C377        C733   1.456   1_545  S
C377        C548   1.455       .  S
C377        C565   1.354   1_545  D
C378        C551   1.456       .  S
C378        C739   1.452       .  S
C378        C564   1.354       .  D
C379        N397   1.360       .  A
C379        C416   1.437       .  S
C379        C550   1.441       .  S
N380        N397   1.335       .  A
N380        N402   1.319       .  A
N380       Co417   2.131       .  S
C381        N406   1.350       .  A
C381        C419   1.463       .  S
C381        H426   1.081       .  S
H382        C423   1.081       .  S
C383        N407   1.330       .  A
C383        C387   1.437       .  S
C383        H412   1.081       .  S
Co384       N402   2.043       .  S
Co384       N392   2.150       .  S
Co384       N424   2.149       .  S
Co384       N400   2.067       .  S
Co384      Cl428   2.449       .  S
N385        C423   1.328       .  A
N385        N392   1.321       .  A
N385       Co386   2.030       .  S
Co386       N389   2.125       .  S
Co386       N406   2.108       .  S
Co386       N393   2.039       .  S
Co386      Cl428   2.455       .  S
C387        N425   1.358       .  A
C387        C553   1.438       .  S
N388        N395   1.320       .  A
N388        N418   1.333       .  A
N388       Co421   2.124       .  S
N389        N407   1.318       .  A
N389        N425   1.334       .  A
N390        C419   1.346       .  A
N390        N400   1.319       .  A
H391        C416   1.081       .  S
N392        N413   1.336       .  A
N393        N411   1.319       .  A
N393        N398   1.315       .  A
C394        N398   1.337       .  A
C394        C422   1.471       .  S
C394        C539   1.473       .  S
N395        C410   1.328       .  A
N395       Co417   2.041       .  S
C396        N424   1.359       .  A
C396        C399   1.483       .  S
C396        H430   1.081       .  S
C399        N420   1.340       .  A
C399        C530   1.493       .  S
N400        N406   1.320       .  A
N401        C427   1.352       .  A
N401        N403   1.319       .  A
N401       Co417   2.119       .  S
N402        C416   1.330       .  A
N403        N431   1.315       .  A
N403       Co421   2.036       .  S
H404        C427   1.081       .  S
H405        C422   1.081       .  S
N407       Co421   2.039       .  S
N408        N420   1.319       .  A
N408        N424   1.321       .  A
N408       Co417   2.052       .  S
C409        N413   1.362       .  A
C409        C423   1.434       .  S
C409        C558   1.441       .  S
C410        C429   1.436       .  S
C410        H414   1.081       .  S
N411        C422   1.354       .  A
N411       Co421   2.123       .  S
C415        N431   1.337       .  A
C415        C427   1.472       .  S
C415        C535   1.470       .  S
Co417      Cl428   2.447       .  S
N418        C429   1.358       .  A
C419        C543   1.476       .  S
Co421      Cl428   2.446       .  S
C429        C560   1.434       .  S
C432        N450   1.337       .  A
C432        C469   1.464       .  S
C432        C556   1.427       .  S
N433        N450   1.316       .  A
N433        N455   1.317       .  A
N433       Co470   2.038       .  S
C434        N459   1.326       .  A
C434        C472   1.444       .  S
C434        H479   1.082       .  S
H435        C476   1.081       .  S
C436        N460   1.352       .  A
C436        C440   1.467       .  S
C436        H465   1.081       .  S
Co437       N455   2.103       .  S
Co437       N445   2.043       .  S
Co437       N477   2.064       .  S
Co437       N453   2.095       .  S
Co437      Cl481   2.459       .  S
N438        C476   1.354       .  A
N438        N445   1.322       .  A
N438       Co439   2.134       .  S
Co439       N442   2.044       .  S
Co439       N459   2.042       .  S
Co439       N446   2.122       .  S
Co439      Cl481   2.437       .  S
C440        N478   1.337       .  A
C440        C555   1.434       .  S
N441        N448   1.321       .  A
N441        N471   1.318       .  A
N441       Co474   2.057       .  S
N442        N460   1.319       .  A
N442        N478   1.317       .  A
N443        C472   1.353       .  A
N443        N453   1.329       .  A
H444        C469   1.081       .  S
N445        N466   1.317       .  A
N446        N464   1.320       .  A
N446        N451   1.333       .  A
C447        N451   1.357       .  A
C447        C475   1.454       .  S
C447        C526   1.484       .  S
N448        C463   1.354       .  A
N448       Co470   2.124       .  S
C449        N477   1.335       .  A
C449        C452   1.455       .  S
C449        H483   1.081       .  S
C452        N473   1.358       .  A
C452        C518   1.489       .  S
N453        N459   1.318       .  A
N454        C480   1.314       .  A
N454        N456   1.315       .  A
N454       Co470   2.024       .  S
N455        C469   1.349       .  A
N456        N484   1.336       .  A
N456       Co474   2.116       .  S
H457        C480   1.079       .  S
H458        C475   1.082       .  S
N460       Co474   2.117       .  S
N461        N473   1.334       .  A
N461        N477   1.320       .  A
N461       Co470   2.128       .  S
C462        N466   1.336       .  A
C462        C476   1.473       .  S
C462        C549   1.439       .  S
C463        C482   1.472       .  S
C463        H467   1.081       .  S
N464        C475   1.334       .  A
N464       Co474   2.064       .  S
C468        N484   1.364       .  A
C468        C480   1.449       .  S
C468        C514   1.488       .  S
Co470      Cl481   2.432       .  S
N471        C482   1.337       .  A
C472        C523   1.460       .  S
Co474      Cl481   2.459       .  S
C482        C547   1.441       .  S
O485        C493   1.266       .  A
O485       Co505   1.895       .  S
O486        C494   1.272       .  A
O486       Co506   1.912       .  S
O487        C495   1.269       .  A
O487       Co694   2.023   1_545  S
O488        C496   1.278       .  A
O488       Co695   2.013       .  S
O489        C495   1.259       .  A
O489       Co506   1.967   1_556  S
O490        C496   1.263       .  A
O490       Co505   1.972   1_554  S
O491        C494   1.293       .  A
O491       Co508   2.072   1_545  S
O492        C493   1.300       .  A
O492       Co507   2.131       .  S
C493        C531   1.489       .  S
C494        C519   1.475       .  S
C495        C534   1.462       .  S
C496        C515   1.455       .  S
O497        C510   1.280       .  A
O498        C511   1.267       .  A
O499        C512   1.257       .  A
O500        C513   1.267       .  A
O501        C513   1.288       .  A
O502        C512   1.274       .  A
O503        C510   1.263       .  A
O504        C511   1.254       .  A
Co505       O696   2.028   1_556  S
Co506       O509   1.967   1_544  S
Co507       O674   1.980       .  S
Co507       O696   2.000   1_556  S
Co508       O675   2.064       .  S
Co508       O509   2.210   1_554  S
O509       Co692   1.948       .  S
O509       Co694   2.053       .  S
C510        C527   1.477       .  S
C511        C538   1.472       .  S
C512        C542   1.470       .  S
C513        C522   1.460       .  S
C514        C515   1.349       .  D
C514        H516   1.085       .  S
C515        H517   1.079       .  S
C518        C519   1.349       .  D
C518        H520   1.086       .  S
C519        H521   1.086       .  S
C522        C523   1.337       .  D
C522        H524   1.089       .  S
C523        H525   1.086       .  S
C526        C527   1.348       .  D
C526        H528   1.086       .  S
C527        H529   1.088       .  S
C530        C531   1.354       .  D
C530        H532   1.085       .  S
C531        H533   1.088       .  S
C534        C535   1.349       .  D
C534        H536   1.087       .  S
C535        H537   1.086       .  S
C538        C539   1.352       .  D
C538        H540   1.087       .  S
C539        H541   1.086       .  S
C542        C543   1.343       .  D
C542        H544   1.089       .  S
C543        H545   1.086       .  S
C546        C564   1.455       .  S
C546        C547   1.211       .  T
C548        C549   1.210       .  T
C550        C551   1.211       .  T
C552        C565   1.454   1_545  S
C552        C553   1.209       .  T
C554        C555   1.207       .  T
C556        C557   1.203       .  T
C558        C559   1.212       .  T
C560        C561   1.207       .  T
C562        C746   1.451   1_455  S
C563        C744   1.442       .  S
C564        C735   1.458       .  S
C565        C738   1.454       .  S
C566        N584   1.357       .  A
C566        C603   1.441       .  S
C566        C737   1.441       .  S
N567        N584   1.333       .  A
N567        N589   1.319       .  A
N567       Co604   2.118       .  S
C568        N593   1.349       .  A
C568        C606   1.461       .  S
C568        H613   1.081       .  S
H569        C610   1.081       .  S
C570        N594   1.329       .  A
C570        C574   1.436       .  S
C570        H599   1.082       .  S
Co571       N589   2.057       .  S
Co571       N579   2.136       .  S
Co571       N611   2.138       .  S
Co571       N587   2.066       .  S
Co571      Cl615   2.443       .  S
N572        C610   1.328       .  A
N572        N579   1.321       .  A
N572       Co573   2.032       .  S
Co573       N576   2.121       .  S
Co573       N593   2.102       .  S
Co573       N580   2.041       .  S
Co573      Cl615   2.455       .  S
C574        N612   1.358       .  A
C574        C740   1.436       .  S
N575        N582   1.320       .  A
N575        N605   1.331       .  A
N575       Co608   2.110       .  S
N576        N594   1.317       .  A
N576        N612   1.334       .  A
N577        C606   1.346       .  A
N577        N587   1.319       .  A
H578        C603   1.081       .  S
N579        N600   1.334       .  A
N580        N598   1.319       .  A
N580        N585   1.316       .  A
C581        N585   1.338       .  A
C581        C609   1.472       .  S
C581        C726   1.475       .  S
N582        C597   1.330       .  A
N582       Co604   2.051       .  S
C583        N611   1.359       .  A
C583        C586   1.480       .  S
C583        H617   1.081       .  S
C586        N607   1.342       .  A
C586        C717   1.494       .  S
N587        N593   1.320       .  A
N588        C614   1.353       .  A
N588        N590   1.318       .  A
N588       Co604   2.111       .  S
N589        C603   1.332       .  A
N590        N618   1.309       .  A
N590       Co608   2.026       .  S
H591        C614   1.081       .  S
H592        C609   1.081       .  S
N594       Co608   2.036       .  S
N595        N607   1.318       .  A
N595        N611   1.320       .  A
N595       Co604   2.056       .  S
C596        N600   1.358       .  A
C596        C610   1.435       .  S
C596        C745   1.434       .  S
C597        C616   1.439       .  S
C597        H601   1.081       .  S
N598        C609   1.354       .  A
N598       Co608   2.124       .  S
C602        N618   1.335       .  A
C602        C614   1.472       .  S
C602        C722   1.468       .  S
Co604      Cl615   2.449       .  S
N605        C616   1.354       .  A
C606        C730   1.473       .  S
Co608      Cl615   2.441       .  S
C616        C747   1.431       .  S
C619        N637   1.337       .  A
C619        C656   1.462       .  S
C619        C743   1.425       .  S
N620        N637   1.316       .  A
N620        N642   1.319       .  A
N620       Co657   2.047       .  S
C621        N646   1.326       .  A
C621        C659   1.444       .  S
C621        H666   1.082       .  S
H622        C663   1.081       .  S
C623        N647   1.353       .  A
C623        C627   1.470       .  S
C623        H652   1.081       .  S
Co624       N642   2.098       .  S
Co624       N632   2.029       .  S
Co624       N664   2.034       .  S
Co624       N640   2.098       .  S
Co624      Cl668   2.449       .  S
N625        C663   1.357       .  A
N625        N632   1.320       .  A
N625       Co626   2.142       .  S
Co626       N629   2.038       .  S
Co626       N646   2.039       .  S
Co626       N633   2.130       .  S
Co626      Cl668   2.446       .  S
C627        N665   1.335       .  A
C627        C742   1.434       .  S
N628        N635   1.320       .  A
N628        N658   1.319       .  A
N628       Co661   2.056       .  S
N629        N647   1.320       .  A
N629        N665   1.315       .  A
N630        C659   1.352       .  A
N630        N640   1.329       .  A
H631        C656   1.081       .  S
N632        N653   1.315       .  A
N633        N651   1.320       .  A
N633        N638   1.335       .  A
C634        N638   1.360       .  A
C634        C662   1.451       .  S
C634        C713   1.489       .  S
N635        C650   1.354       .  A
N635       Co657   2.124       .  S
C636        N664   1.325       .  A
C636        C639   1.443       .  S
C636        H670   1.081       .  S
C639        N660   1.357       .  A
C639        C705   1.468       .  S
N640        N646   1.318       .  A
N641        C667   1.331       .  A
N641        N643   1.319       .  A
N641       Co657   2.051       .  S
N642        C656   1.348       .  A
N643        N671   1.333       .  A
N643       Co661   2.119       .  S
H644        C667   1.081       .  S
H645        C662   1.081       .  S
N647       Co661   2.125       .  S
N648        N660   1.331       .  A
N648        N664   1.318       .  A
N648       Co657   2.116       .  S
C649        N653   1.333       .  A
C649        C663   1.477       .  S
C649        C736   1.440       .  S
C650        C669   1.471       .  S
C650        H654   1.081       .  S
N651        C662   1.334       .  A
N651       Co661   2.061       .  S
C655        N671   1.358       .  A
C655        C667   1.445       .  S
C655        C701   1.476       .  S
Co657      Cl668   2.442       .  S
N658        C669   1.338       .  A
C659        C710   1.458       .  S
Co661      Cl668   2.451       .  S
C669        C734   1.443       .  S
O672        C680   1.266       .  A
O672       Co692   2.005       .  S
O673        C681   1.264       .  A
O673       Co693   1.956       .  S
O674        C682   1.258       .  A
O675        C683   1.297       .  A
O676        C682   1.257       .  A
O676       Co693   1.965   1_556  S
O677        C683   1.278       .  A
O677       Co692   1.906   1_554  S
O678        C681   1.272       .  A
O678       Co695   2.011       .  S
O679        C680   1.268       .  A
O679       Co694   2.005       .  S
C680        C718   1.486       .  S
C681        C706   1.456       .  S
C682        C721   1.449       .  S
C683        C702   1.475       .  S
O684        C697   1.280       .  A
O685        C698   1.266       .  A
O686        C699   1.257       .  A
O687        C700   1.266       .  A
O688        C700   1.288       .  A
O689        C699   1.274   1_455  A
O690        C697   1.265       .  A
O691        C698   1.254       .  A
Co693       O696   2.048       .  S
Co695       O696   2.007       .  S
C697        C714   1.482       .  S
C698        C725   1.473       .  S
C699        C729   1.466       .  S
C700        C709   1.460       .  S
C701        C702   1.349       .  D
C701        H703   1.086       .  S
C702        H704   1.088       .  S
C705        C706   1.344       .  D
C705        H707   1.086       .  S
C706        H708   1.087       .  S
C709        C710   1.337       .  D
C709        H711   1.088       .  S
C710        H712   1.086       .  S
C713        C714   1.352       .  D
C713        H715   1.085       .  S
C714        H716   1.087       .  S
C717        C718   1.352       .  D
C717        H719   1.085       .  S
C718        H720   1.089       .  S
C721        C722   1.348       .  D
C721        H723   1.087       .  S
C722        H724   1.086       .  S
C725        C726   1.352       .  D
C725        H727   1.087       .  S
C726        H728   1.086       .  S
C729        C730   1.340       .  D
C729        H731   1.089       .  S
C730        H732   1.086       .  S
C733        C734   1.212       .  T
C735        C736   1.212       .  T
C737        C738   1.210       .  T
C739        C740   1.208       .  T
C741        C742   1.207       .  T
C743        C744   1.202       .  T
C745        C746   1.208       .  T
C747        C748   1.205       .  T
