geometry optimzed in LAMMPS
_audit_creation_date              2020-11-30 
_audit_creation_method            'lammps2cif' 
_symmetry_space_group_name_H-M    'P1' 
_symmetry_Int_Tables_number       1 
_symmetry_cell_setting            triclinic 
loop_ 
_symmetry_equiv_pos_as_xyz 
  x,y,z 
_cell_length_a                    32.20188206 
_cell_length_b                    31.915797996153817 
_cell_length_c                    48.45078754034913 
_cell_angle_alpha                 90.31385321240448 
_cell_angle_beta                  89.86434836598072 
_cell_angle_gamma                 120.45268241328307 
loop_ 
_atom_site_label 
_atom_site_type_symbol 
_atom_site_fract_x 
_atom_site_fract_y 
_atom_site_fract_z 
_atom_site_charge 
C1          C  0.33184576  0.16525025  0.34784749     0.46100
H2          H  0.33103869  0.16553064  0.32493192    -0.02900
C3          C  0.33334850  0.16462629  0.40157402     0.46200
H4          H  0.33392451  0.16431362  0.42451162    -0.02900
C5          C  0.35659731  0.13883184  0.35977956    -0.16600
C6          C  0.35850702  0.21624751  0.36089864    -0.16400
C7          C  0.28149017  0.14038727  0.36094251    -0.16700
C8          C  0.35742894  0.13874766  0.38814027    -0.16700
C9          C  0.35887596  0.21577042  0.38924450    -0.16300
C10         C  0.28250571  0.13986310  0.38929082    -0.16600
C11         C  0.16633513  0.33567838  0.15183853     0.46100
H12         H  0.16449890  0.33518613  0.17470594    -0.02900
C13         C  0.16784065  0.33395349  0.09817799     0.46200
H14         H  0.16782509  0.33310072  0.07530804    -0.02900
C15         C  0.21770493  0.35917533  0.13983706    -0.16600
C16         C  0.13975322  0.28423813  0.13965793    -0.16400
C17         C  0.14368413  0.36275412  0.13811937    -0.16700
C18         C  0.21866862  0.35876060  0.11118615    -0.16700
C19         C  0.14025068  0.28328207  0.11150177    -0.16300
C20         C  0.14425314  0.36187627  0.10978010    -0.16600
Zn21       Zn  0.03404080  0.46814830  0.48587963     1.49700
Zn22       Zn  0.43487619  0.46739911  0.48655547     1.49400
Zn23       Zn  0.50233759  0.50166955  0.04038578     1.49100
Zn24       Zn  0.03432443  0.06882019  0.48609194     1.49500
O25         O  0.50143076  0.50169696  0.49979053    -1.83500
O26         O  0.48996354  0.40941991  0.46316150    -0.74100
O27         O  0.38857937  0.44347625  0.01857963    -0.73900
O28         O  0.04011528  0.47102478  0.05487149    -0.73400
O29         O  0.42094146  0.40917260  0.46306793    -0.74100
O30         O  0.05857980  0.44484477  0.01675550    -0.73700
O31         O  0.43469909  0.46701495  0.05612784    -0.74300
O32         O  0.05674659  0.11639417  0.01793590    -0.73700
O33         O  0.42060338  0.01135224  0.46371595    -0.74500
O34         O  0.03369243  0.06956670  0.05529550    -0.73800
O35         O  0.48994225  0.08125209  0.46206259    -0.74300
O36         O  0.09345626  0.08343738  0.46396364    -0.74200
O37         O  0.09111577  0.01266254  0.46266541    -0.74000
C38         C  0.44608879  0.39039055  0.45594284     0.77800
C39         C  0.39332260  0.44628478  0.04473574     0.78300
C40         C  0.05938594  0.44940998  0.04286850     0.77200
C41         C  0.05370105  0.11113943  0.04402682     0.77600
C42         C  0.44557850  0.05513631  0.45551855     0.78700
C43         C  0.11099758  0.05736251  0.45625402     0.77800
Zn44       Zn  0.06607323  0.03193303  0.23698123     1.49700
Zn45       Zn  0.99862276  0.49935273  0.29077934     1.49400
Zn46       Zn  0.46762227  0.03242554  0.23603247     1.49100
Zn47       Zn  0.46595801  0.43152898  0.23676198     1.49500
O48         O  0.99957860  0.49886589  0.25026090    -1.83500
O49         O  0.11237773  0.05342365  0.26879471    -0.74100
O50         O  0.46128859  0.03040450  0.30499729    -0.73900
O51         O  0.01275397  0.09019022  0.21284337    -0.73400
O52         O  0.06666835  0.03582539  0.30635363    -0.74100
O53         O  0.08201389  0.09098886  0.21380926    -0.73700
O54         O  0.44396905  0.05712735  0.26691442    -0.74300
O55         O  0.41077031  0.41786593  0.21216567    -0.73700
O56         O  0.46547671  0.43089441  0.30560638    -0.74500
O57         O  0.40936585  0.48676413  0.21335237    -0.73800
O58         O  0.43803691  0.38416690  0.26809273    -0.74300
O59         O  0.00997850  0.41653463  0.21477696    -0.74200
O60         O  0.07840292  0.48722972  0.21379828    -0.74000
C61         C  0.10786538  0.05358515  0.29489039     0.77800
C62         C  0.44265327  0.05239893  0.29300511     0.78300
C63         C  0.05689938  0.10932278  0.20598627     0.77200
C64         C  0.39177123  0.44282613  0.20546467     0.77600
C65         C  0.44191817  0.38921850  0.29418151     0.78700
C66         C  0.05346690  0.44263537  0.20690131     0.77800
C67         C  0.11693708  0.23785476  0.09518650    -0.04800
C68         C  0.14548840  0.22096722  0.08347242    -0.32200
C69         C  0.12509051  0.17991648  0.06645116     0.37000
C70         C  0.07521278  0.15431987  0.06176507    -0.05200
C71         C  0.04591470  0.16886917  0.07516621    -0.32100
C72         C  0.06660085  0.21079629  0.09185840     0.36900
H73         H  0.18349102  0.23899025  0.08813859     0.17300
O74         O  0.15406152  0.16477621  0.05466262    -0.59600
H75         H  0.00716684  0.14793961  0.07252241     0.17300
O76         O  0.03785789  0.22416700  0.10584301    -0.59700
H77         H  0.01364099  0.22210173  0.09245443     0.44300
H78         H  0.15274182  0.13990876  0.06740564     0.44200
C79         C  0.26349129  0.38168036  0.09373979    -0.04800
C80         C  0.30298166  0.42743410  0.10099966    -0.32200
C81         C  0.34597747  0.44834072  0.08577554     0.37000
C82         C  0.34944621  0.42473389  0.06200818    -0.05200
C83         C  0.30950189  0.38060260  0.05385649    -0.32100
C84         C  0.26718654  0.35864168  0.06960578     0.36900
H85         H  0.30067817  0.44708897  0.11866154     0.17300
O86         O  0.38394841  0.99236681  0.09395262    -0.59600
H87         H  0.31137894  0.36231588  0.03538291     0.17300
O88         O  0.22966278  0.31475768  0.06098865    -0.59700
H89         H  0.24287996  0.29272613  0.05927499     0.44300
H90         H  0.37948802  0.01700908  0.08415281     0.44200
C91         C  0.12386202  0.38493265  0.09170853    -0.04800
C92         C  0.13564674  0.43323067  0.09645952    -0.32200
C93         C  0.11446719  0.45450860  0.08104943     0.37000
C94         C  0.08260391  0.42827625  0.05945274    -0.05200
C95         C  0.07327534  0.38127868  0.05333370    -0.32100
C96         C  0.09298098  0.35925839  0.06950493     0.36900
H97         H  0.16188745  0.45497598  0.11188413     0.17300
O98         O  0.12699116  0.50175278  0.08634678    -0.59600
H99         H  0.04938200  0.36090559  0.03644201     0.17300
O100        O  0.08159601  0.31256939  0.06353575    -0.59700
H101        H  0.04619695  0.29240825  0.06582338     0.44300
H102        H  0.10631646  0.50001564  0.10201885     0.44200
C103        C  0.07914122  0.15416840  0.18896256    -0.04800
C104        C  0.05748606  0.18290939  0.18832037    -0.32200
C105        C  0.07745438  0.22567540  0.17285514     0.37000
C106        C  0.11901110  0.23992981  0.15700521    -0.05200
C107        C  0.14091285  0.21152600  0.15749041    -0.32100
C108        C  0.12150248  0.16906914  0.17337313     0.36900
H109        H  0.02513442  0.17258187  0.20015221     0.17300
O110        O  0.05522798  0.25257454  0.17281416    -0.59600
H111        H  0.17323764  0.22239647  0.14550525     0.17300
O112        O  0.14408043  0.14239561  0.17328332    -0.59700
H113        H  0.12837084  0.11815009  0.15825578     0.44300
H114        H  0.06770976  0.27366807  0.18942172     0.44200
C115        C  0.34716520  0.41969745  0.18908846    -0.04800
C116        C  0.30961566  0.42719939  0.19684505    -0.34600
C117        C  0.26653744  0.40629529  0.18180596     0.37000
C118        C  0.26099983  0.37788464  0.15809222    -0.05200
C119        C  0.29764226  0.36772460  0.15158001    -0.32100
C120        C  0.34061055  0.38871121  0.16670571     0.36900
H121        H  0.31353016  0.44914142  0.21489705     0.17300
O122        O  0.22979475  0.41288184  0.19084050    -0.59600
H123        H  0.29340620  0.34420442  0.13430101     0.17300
O124        O  0.37682905  0.38063934  0.15862663    -0.59700
H125        H  0.36911094  0.34946060  0.16732948     0.44300
H126        H  0.24445669  0.44772540  0.19589554     0.44200
C127        C  0.12048962  0.38425021  0.15466558    -0.04800
C128        C  0.07106726  0.35664629  0.16001872    -0.32200
C129        C  0.04867306  0.37444600  0.17740034     0.37000
C130        C  0.07579627  0.42140833  0.18912492    -0.05200
C131        C  0.12526537  0.44933763  0.18307206    -0.32100
C132        C  0.14758044  0.43120323  0.16587624     0.36900
H133        H  0.04974701  0.32101418  0.15074490     0.17300
O134        O  0.50055140  0.34527197  0.18307423    -0.59600
H135        H  0.14698018  0.48555536  0.19162133     0.17300
O136        O  0.19578301  0.45949912  0.15990641    -0.59700
H137        H  0.20084918  0.49110598  0.15326939     0.44300
H138        H  0.48351013  0.34727232  0.16656129     0.44200
C139        C  0.38030107  0.11735173  0.40498081    -0.04800
C140        C  0.35129881  0.07549056  0.42039530    -0.32200
C141        C  0.37187207  0.05454427  0.43664557     0.37000
C142        C  0.42255993  0.07611881  0.43810824    -0.05200
C143        C  0.45144977  0.11868236  0.42285548    -0.32100
C144        C  0.43063159  0.13897009  0.40620422     0.36900
H145        H  0.31245733  0.05875497  0.41964105     0.17300
O146        O  0.34194382  0.01315581  0.45110724    -0.59600
H147        H  0.49034886  0.13618338  0.42364068     0.17300
O148        O  0.45972580  0.18082579  0.39189707    -0.59700
H149        H  0.46860694  0.17009429  0.37476334     0.44300
H150        H  0.33640005  0.02469314  0.46902530     0.44200
C151        C  0.37966918  0.25968752  0.40693380    -0.04800
C152        C  0.41688297  0.26861536  0.42523561    -0.32200
C153        C  0.43955405  0.31149278  0.44088196     0.37000
C154        C  0.42366794  0.34531666  0.43913366    -0.05200
C155        C  0.38516088  0.33530222  0.42144543    -0.32100
C156        C  0.36324323  0.29289405  0.40539447     0.36900
H157        H  0.42939424  0.24293539  0.42673898     0.17300
O158        O  0.47619874  0.31923003  0.45840765    -0.59600
H159        H  0.37225977  0.36063936  0.41984801     0.17300
O160        O  0.32580419  0.28416796  0.38827096    -0.59700
H161        H  0.29666753  0.26865092  0.40009756     0.44300
H162        H  0.00541044  0.33270703  0.44665577     0.44200
C163        C  0.23940126  0.11795833  0.40706776    -0.04800
C164        C  0.23329434  0.14731425  0.42630877    -0.32200
C165        C  0.19129021  0.12839862  0.44218035     0.37000
C166        C  0.15538719  0.07899820  0.43945436    -0.05200
C167        C  0.16253339  0.04938743  0.42076847    -0.32100
C168        C  0.20412090  0.06855126  0.40461797     0.36900
H169        H  0.26064663  0.18532791  0.42850096     0.17300
O170        O  0.18649385  0.15799811  0.46095590    -0.59600
H171        H  0.13551438  0.01130584  0.41844761     0.17300
O172        O  0.20982309  0.03879072  0.38640276    -0.59700
H173        H  0.23084666  0.02918349  0.39602384     0.44300
H174        H  0.17616177  0.17730647  0.45001302     0.44200
C175        C  0.37725168  0.11595080  0.34193553    -0.04800
C176        C  0.36615513  0.06804082  0.34691892    -0.32200
C177        C  0.38708185  0.04680723  0.33105749     0.37000
C178        C  0.41919620  0.07334443  0.30963867    -0.05200
C179        C  0.42863040  0.12038437  0.30384900    -0.32100
C180        C  0.40827624  0.14188571  0.31994329     0.36900
H181        H  0.34096971  0.04688451  0.36305001     0.17300
O182        O  0.37526127  0.99984361  0.33630854    -0.59600
H183        H  0.45293614  0.14103866  0.28724146     0.17300
O184        O  0.41989781  0.18867528  0.31435335    -0.59700
H185        H  0.44591401  0.20925433  0.32757005     0.44300
H186        H  0.34716524  0.47942055  0.32427181     0.44200
C187        C  0.38039490  0.26095406  0.34394806    -0.04800
C188        C  0.35223335  0.26639470  0.32383423    -0.32200
C189        C  0.37158363  0.30838575  0.30766405     0.37000
C190        C  0.41972599  0.34557737  0.31156816    -0.05200
C191        C  0.44786275  0.34013801  0.33161158    -0.32100
C192        C  0.42879388  0.29789390  0.34753285     0.36900
H193        H  0.31496191  0.23822058  0.32088583     0.17300
O194        O  0.34316352  0.31295887  0.28827843    -0.59600
H195        H  0.48529465  0.36806537  0.33428872     0.17300
O196        O  0.45842082  0.29149440  0.36517237    -0.59700
H197        H  0.47171546  0.31948068  0.37815073     0.44300
H198        H  0.32403511  0.32423819  0.29867197     0.44200
C199        C  0.23691302  0.11923793  0.34394295    -0.04800
C200        C  0.23102924  0.08716704  0.32240415    -0.32200
C201        C  0.18897260  0.06530420  0.30646382     0.37000
C202        C  0.15176573  0.07513476  0.31206466    -0.05200
C203        C  0.15768923  0.10744138  0.33347797    -0.32100
C204        C  0.20038242  0.13045517  0.34887794     0.36900
H205        H  0.25886947  0.07843623  0.31819890     0.17300
O206        O  0.18428504  0.53383686  0.28567736    -0.59600
H207        H  0.12984030  0.11618219  0.33760845     0.17300
O208        O  0.20640474  0.16467725  0.36817685    -0.59700
H209        H  0.22775552  0.19649049  0.35931265     0.44300
H210        H  0.16882434  0.50131996  0.29440279     0.44200
C211        C  0.33184197  0.16524944  0.84784599     0.46100
H212        H  0.33103384  0.16552838  0.82493041    -0.02900
C213        C  0.33334784  0.16462868  0.90157247     0.46200
H214        H  0.33392524  0.16431729  0.92451006    -0.02900
C215        C  0.35659400  0.13883162  0.85977810    -0.16600
C216        C  0.35850439  0.21624753  0.86089606    -0.16400
C217        C  0.28148705  0.14038726  0.86094200    -0.16700
C218        C  0.35742749  0.13874912  0.88813876    -0.16700
C219        C  0.35887434  0.21577221  0.88924192    -0.16300
C220        C  0.28250427  0.13986449  0.88929032    -0.16600
C221        C  0.16633521  0.33568206  0.65183832     0.46100
H222        H  0.16450067  0.33519224  0.67470578    -0.02900
C223        C  0.16783814  0.33395249  0.59817769     0.46200
H224        H  0.16782057  0.33309792  0.57530777    -0.02900
C225        C  0.21770405  0.35917702  0.63983587    -0.16600
C226        C  0.13975214  0.28424092  0.63965907    -0.16400
C227        C  0.14368445  0.36275724  0.63811859    -0.16700
C228        C  0.21866671  0.35875994  0.61118494    -0.16700
C229        C  0.14024838  0.28328227  0.61150289    -0.16300
C230        C  0.14425238  0.36187702  0.60977945    -0.16600
Zn231      Zn  0.03403788  0.46814780  0.98587960     1.49700
Zn232      Zn  0.43487407  0.46740050  0.98655514     1.49400
Zn233      Zn  0.50233605  0.50166713  0.54038662     1.49100
Zn234      Zn  0.03432280  0.06882039  0.98608906     1.49500
O235        O  0.50142944  0.50169726  0.99978951    -1.83500
O236        O  0.48996009  0.40942146  0.96315933    -0.74100
O237        O  0.38857897  0.44347262  0.51857862    -0.73900
O238        O  0.04011365  0.47102171  0.55487171    -0.73400
O239        O  0.42093761  0.40917364  0.96306678    -0.74100
O240        O  0.05858616  0.44484995  0.51675519    -0.73700
O241        O  0.43469709  0.46700943  0.55612736    -0.74300
O242        O  0.05674984  0.11639191  0.51794010    -0.73700
O243        O  0.42060139  0.01135454  0.96371642    -0.74500
O244        O  0.03368860  0.06956191  0.55529865    -0.73800
O245        O  0.48994239  0.08125143  0.96205860    -0.74300
O246        O  0.09345609  0.08343594  0.96396313    -0.74200
O247        O  0.09111559  0.01266095  0.96266704    -0.74000
C248        C  0.44608529  0.39039241  0.95594070     0.77800
C249        C  0.39332108  0.44627959  0.54473476     0.78300
C250        C  0.05938859  0.44941156  0.54286825     0.77200
C251        C  0.05370077  0.11113552  0.54403091     0.77600
C252        C  0.44557754  0.05513702  0.95551659     0.78700
C253        C  0.11099812  0.05736082  0.95625526     0.77800
Zn254      Zn  0.06607150  0.03193603  0.73698029     1.49700
Zn255      Zn  0.99861986  0.49935500  0.79077734     1.49400
Zn256      Zn  0.46761922  0.03242596  0.73603067     1.49100
Zn257      Zn  0.46595747  0.43153132  0.73675956     1.49500
O258        O  0.99957693  0.49886854  0.75025901    -1.83500
O259        O  0.11237532  0.05342556  0.76879403    -0.74100
O260        O  0.46128225  0.03040218  0.80499545    -0.73900
O261        O  0.01275189  0.09019420  0.71284361    -0.73400
O262        O  0.06666491  0.03582804  0.80635245    -0.74100
O263        O  0.08201171  0.09099232  0.71380967    -0.73700
O264        O  0.44396268  0.05712470  0.76691245    -0.74300
O265        O  0.41076983  0.41786711  0.71216308    -0.73700
O266        O  0.46547587  0.43089360  0.80560389    -0.74500
O267        O  0.40936569  0.48676545  0.71334936    -0.73800
O268        O  0.43803819  0.38416790  0.76808943    -0.74300
O269        O  0.00997900  0.41653969  0.71477433    -0.74200
O270        O  0.07840341  0.48723469  0.71379631    -0.74000
C271        C  0.10786224  0.05358717  0.79488964     0.77800
C272        C  0.44264619  0.05239580  0.79300311     0.78300
C273        C  0.05689754  0.10932681  0.70598712     0.77200
C274        C  0.39177116  0.44282747  0.70546171     0.77600
C275        C  0.44191917  0.38921814  0.79417825     0.78700
C276        C  0.05346750  0.44264050  0.70689898     0.77800
C277        C  0.11693533  0.23785333  0.59518894    -0.04800
C278        C  0.14548783  0.22096819  0.58347370    -0.32200
C279        C  0.12509023  0.17991558  0.56645385     0.37000
C280        C  0.07521186  0.15431515  0.56177002    -0.05200
C281        C  0.04591300  0.16886172  0.57517287    -0.32100
C282        C  0.06659868  0.21079034  0.59186380     0.36900
H283        H  0.18349134  0.23899462  0.58813795     0.17300
O284        O  0.15406220  0.16477725  0.55466457    -0.59600
H285        H  0.00716483  0.14792940  0.57253093     0.17300
O286        O  0.03785498  0.22415857  0.60584964    -0.59700
H287        H  0.01363932  0.22209600  0.59246102     0.44300
H288        H  0.15274639  0.13991229  0.56740820     0.44200
C289        C  0.26348898  0.38167821  0.59373809    -0.04800
C290        C  0.30298135  0.42743013  0.60099875    -0.32200
C291        C  0.34597728  0.44833495  0.58577502     0.37000
C292        C  0.34944428  0.42472899  0.56200678    -0.05200
C293        C  0.30949790  0.38060017  0.55385384    -0.32100
C294        C  0.26718221  0.35864050  0.56960296     0.36900
H295        H  0.30067947  0.44708517  0.61866099     0.17300
O296        O  0.38394981  0.99235652  0.59395292    -0.59600
H297        H  0.31137349  0.36231449  0.53537942     0.17300
O298        O  0.22965595  0.31475917  0.56098434    -0.59700
H299        H  0.24287060  0.29272585  0.55926746     0.44300
H300        H  0.37949703  0.01700143  0.58415051     0.44200
C301        C  0.12386255  0.38493364  0.59170771    -0.04800
C302        C  0.13565320  0.43323397  0.59645636    -0.32200
C303        C  0.11447456  0.45451249  0.58104624     0.37000
C304        C  0.08260636  0.42827793  0.55945201    -0.05200
C305        C  0.07327193  0.38127776  0.55333506    -0.32100
C306        C  0.09297674  0.35925717  0.56950641     0.36900
H307        H  0.16189759  0.45498019  0.61187914     0.17300
O308        O  0.12700355  0.50175871  0.58634128    -0.59600
H309        H  0.04937450  0.36090306  0.53644516     0.17300
O310        O  0.08158558  0.31256545  0.56353996    -0.59700
H311        H  0.04618762  0.29240736  0.56583404     0.44300
H312        H  0.10631865  0.50002447  0.60200691     0.44200
C313        C  0.07914038  0.15417314  0.68896451    -0.04800
C314        C  0.05749205  0.18292056  0.68832760    -0.32200
C315        C  0.07746119  0.22568671  0.67286257     0.37000
C316        C  0.11901126  0.23993432  0.65700754    -0.05200
C317        C  0.14090685  0.21152464  0.65748817    -0.32100
C318        C  0.12149587  0.16906773  0.67337065     0.36900
H319        H  0.02514513  0.17259764  0.70016322     0.17300
O320        O  0.05524112  0.25259194  0.67282626    -0.59600
H321        H  0.17322691  0.22239020  0.64549935     0.17300
O322        O  0.14406675  0.14238741  0.67327575    -0.59700
H323        H  0.12834698  0.11814026  0.65825006     0.44300
H324        H  0.06773338  0.27368827  0.68943218     0.44200
C325        C  0.34716501  0.41969894  0.68908567    -0.04800
C326        C  0.30961855  0.42720693  0.69684045    -0.34600
C327        C  0.26653983  0.40630276  0.68180204     0.37000
C328        C  0.26099904  0.37788655  0.65809050    -0.05200
C329        C  0.29763820  0.36772108  0.65157992    -0.32100
C330        C  0.34060664  0.38870687  0.66670537     0.36900
H331        H  0.31353565  0.44915343  0.71489079     0.17300
O332        O  0.22979951  0.41289426  0.69083518    -0.59600
H333        H  0.29339936  0.34419714  0.63430236     0.17300
O334        O  0.37682160  0.38062804  0.65862846    -0.59700
H335        H  0.36909538  0.34944564  0.66732967     0.44300
H336        H  0.24446396  0.44773863  0.69588897     0.44200
C337        C  0.12049014  0.38425438  0.65466404    -0.04800
C338        C  0.07106833  0.35664962  0.66001841    -0.32200
C339        C  0.04867418  0.37444965  0.67739981     0.37000
C340        C  0.07579688  0.42141346  0.68912264    -0.05200
C341        C  0.12526542  0.44934372  0.68306845    -0.32100
C342        C  0.14758048  0.43120878  0.66587297     0.36900
H343        H  0.04974848  0.32101620  0.65074595     0.17300
O344        O  0.50055317  0.34527466  0.68307540    -0.59600
H345        H  0.14697979  0.48556242  0.69161653     0.17300
O346        O  0.19578261  0.45950511  0.65990215    -0.59700
H347        H  0.20084843  0.49111238  0.65326614     0.44300
H348        H  0.48350951  0.34726415  0.66656057     0.44200
C349        C  0.38029981  0.11735300  0.90497912    -0.04800
C350        C  0.35129787  0.07549421  0.92039547    -0.32200
C351        C  0.37187110  0.05454750  0.93664549     0.37000
C352        C  0.42255887  0.07611937  0.93810606    -0.05200
C353        C  0.45144860  0.11868047  0.92285126    -0.32100
C354        C  0.43063022  0.13896848  0.90620028     0.36900
H355        H  0.31245645  0.05876069  0.91964288     0.17300
O356        O  0.34194295  0.01316124  0.95110891    -0.59600
H357        H  0.49034759  0.13617944  0.92363475     0.17300
O358        O  0.45972436  0.18082201  0.89189131    -0.59700
H359        H  0.46860615  0.17008808  0.87475875     0.44300
H360        H  0.33639914  0.02470124  0.96902604     0.44200
C361        C  0.37966777  0.25969043  0.90693048    -0.04800
C362        C  0.41688016  0.26861785  0.92523321    -0.32200
C363        C  0.43955041  0.31149498  0.94087980     0.37000
C364        C  0.42366496  0.34531925  0.93913081    -0.05200
C365        C  0.38515932  0.33530558  0.92144154    -0.32100
C366        C  0.36324254  0.29289759  0.90539027     0.36900
H367        H  0.42939083  0.24293746  0.92673735     0.17300
O368        O  0.47619344  0.31923141  0.95840662    -0.59600
H369        H  0.37225867  0.36064304  0.91984371     0.17300
O370        O  0.32580452  0.28417202  0.88826601    -0.59700
H371        H  0.29666566  0.26864407  0.90009058     0.44300
H372        H  0.00540610  0.33271049  0.94665490     0.44200
C373        C  0.23940093  0.11795866  0.90706819    -0.04800
C374        C  0.23329481  0.14731335  0.92631049    -0.32200
C375        C  0.19129195  0.12839649  0.94218325     0.37000
C376        C  0.15538877  0.07899632  0.93945658    -0.05200
C377        C  0.16253470  0.04938639  0.92076994    -0.32100
C378        C  0.20412147  0.06855126  0.90461874     0.36900
H379        H  0.26064695  0.18532705  0.92850295     0.17300
O380        O  0.18649696  0.15799444  0.96096060    -0.59600
H381        H  0.13551586  0.01130480  0.91844885     0.17300
O382        O  0.20982412  0.03879130  0.88640334    -0.59700
H383        H  0.23084245  0.02917888  0.89602587     0.44300
H384        H  0.17616181  0.17730204  0.95001951     0.44200
C385        C  0.37724702  0.11594951  0.84193400    -0.04800
C386        C  0.36614779  0.06803848  0.84691660    -0.32200
C387        C  0.38707295  0.04680378  0.83105466     0.37000
C388        C  0.41918882  0.07334124  0.80963650    -0.05200
C389        C  0.42862584  0.12038243  0.80384780    -0.32100
C390        C  0.40827308  0.14188470  0.81994243     0.36900
H391        H  0.34096169  0.04688246  0.86304751     0.17300
O392        O  0.37524955  0.99983900  0.83630455    -0.59600
H393        H  0.45293303  0.14103709  0.78724088     0.17300
O394        O  0.41989768  0.18867555  0.81435362    -0.59700
H395        H  0.44591397  0.20925254  0.82757074     0.44300
H396        H  0.34715077  0.47941736  0.82427125     0.44200
C397        C  0.38039397  0.26095303  0.84394449    -0.04800
C398        C  0.35223388  0.26639341  0.82382957    -0.32200
C399        C  0.37158532  0.30838417  0.80765910     0.37000
C400        C  0.41972735  0.34557586  0.81156401    -0.05200
C401        C  0.44786333  0.34013607  0.83160781    -0.32100
C402        C  0.42879328  0.29789212  0.84752936     0.36900
H403        H  0.31496243  0.23821958  0.82088070     0.17300
O404        O  0.34316647  0.31295715  0.78827249    -0.59600
H405        H  0.48529521  0.36806324  0.83428535     0.17300
O406        O  0.45841921  0.29149218  0.86516952    -0.59700
H407        H  0.47171413  0.31947880  0.87814761     0.44300
H408        H  0.32403210  0.32422959  0.79866581     0.44200
C409        C  0.23690895  0.11923687  0.84394319    -0.04800
C410        C  0.23102427  0.08716504  0.82240475    -0.32200
C411        C  0.18896781  0.06530299  0.80646426     0.37000
C412        C  0.15176211  0.07513559  0.81206437    -0.05200
C413        C  0.15768617  0.10744254  0.83347761    -0.32100
C414        C  0.20037895  0.13045502  0.84887804     0.36900
H415        H  0.25886382  0.07843318  0.81819976     0.17300
O416        O  0.18428046  0.53383602  0.78567761    -0.59600
H417        H  0.12983796  0.11618455  0.83760772     0.17300
O418        O  0.20640175  0.16467704  0.86817710    -0.59700
H419        H  0.22774745  0.19649024  0.85931152     0.44300
H420        H  0.16882465  0.50132005  0.79440397     0.44200
C421        C  0.33184607  0.66525005  0.34784751     0.46100
H422        H  0.33103908  0.66553027  0.32493194    -0.02900
C423        C  0.33334882  0.66462644  0.40157402     0.46200
H424        H  0.33392489  0.66431397  0.42451163    -0.02900
C425        C  0.35659742  0.63883155  0.35977970    -0.16600
C426        C  0.35850762  0.71624741  0.36089850    -0.16400
C427        C  0.28149045  0.64038735  0.36094254    -0.16700
C428        C  0.35742900  0.63874747  0.38814040    -0.16700
C429        C  0.35887655  0.71577052  0.38924435    -0.16300
C430        C  0.28250598  0.63986327  0.38929085    -0.16600
C431        C  0.16633540  0.83567801  0.15183854     0.46100
H432        H  0.16449901  0.83518542  0.17470594    -0.02900
C433        C  0.16784127  0.83395389  0.09817799     0.46200
H434        H  0.16782573  0.83310142  0.07530802    -0.02900
C435        C  0.21770532  0.85917558  0.13983715    -0.16600
C436        C  0.13975393  0.78423785  0.13965773    -0.16400
C437        C  0.14368419  0.86275364  0.13811951    -0.16700
C438        C  0.21866918  0.85876126  0.11118624    -0.16700
C439        C  0.14025166  0.78328227  0.11150157    -0.16300
C440        C  0.14425326  0.86187608  0.10978024    -0.16600
Zn441      Zn  0.03404087  0.96814852  0.48587973     1.49700
Zn442      Zn  0.43487588  0.96739899  0.48655514     1.49400
Zn443      Zn  0.50233857  0.00167005  0.04038595     1.49100
Zn444      Zn  0.03432430  0.56882002  0.48609170     1.49500
O445        O  0.50143040  0.00169693  0.49979035    -1.83500
O446        O  0.48996359  0.90942008  0.46316135    -0.74100
O447        O  0.38858029  0.94347738  0.01858017    -0.73900
O448        O  0.04011470  0.97102420  0.05487173    -0.73400
O449        O  0.42094153  0.90917281  0.46306734    -0.74100
O450        O  0.05857940  0.94484423  0.01675579    -0.73700
O451        O  0.43470018  0.96701627  0.05612831    -0.74300
O452        O  0.05674735  0.61639479  0.01793555    -0.73700
O453        O  0.42060346  0.51135189  0.46371602    -0.74500
O454        O  0.03369392  0.56956754  0.05529524    -0.73800
O455        O  0.48994209  0.58125194  0.46206297    -0.74300
O456        O  0.09345622  0.58343725  0.46396352    -0.74200
O457        O  0.09111563  0.51266235  0.46266521    -0.74000
C458        C  0.44608898  0.89039083  0.45594242     0.77800
C459        C  0.39332363  0.94628615  0.04473627     0.78300
C460        C  0.05938547  0.94940944  0.04286879     0.77200
C461        C  0.05370232  0.61114015  0.04402647     0.77600
C462        C  0.44557847  0.55513606  0.45551874     0.78700
C463        C  0.11099750  0.55736235  0.45625387     0.77800
Zn464      Zn  0.06607288  0.53193285  0.23698142     1.49700
Zn465      Zn  0.99862295  0.99935314  0.29077896     1.49400
Zn466      Zn  0.46762205  0.53242515  0.23603228     1.49100
Zn467      Zn  0.46595840  0.93152942  0.23676183     1.49500
O468        O  0.99957876  0.99886612  0.25026059    -1.83500
O469        O  0.11237754  0.55342416  0.26879492    -0.74100
O470        O  0.46128871  0.53040475  0.30499710    -0.73900
O471        O  0.01275359  0.59019022  0.21284361    -0.73400
O472        O  0.06666831  0.53582552  0.30635396    -0.74100
O473        O  0.08201310  0.59098798  0.21380887    -0.73700
O474        O  0.44396872  0.55712708  0.26691419    -0.74300
O475        O  0.41077056  0.91786650  0.21216570    -0.73700
O476        O  0.46547754  0.93089423  0.30560626    -0.74500
O477        O  0.40936605  0.98676467  0.21335261    -0.73800
O478        O  0.43803766  0.88416709  0.26809244    -0.74300
O479        O  0.00997894  0.91653507  0.21477678    -0.74200
O480        O  0.07840336  0.98723016  0.21379789    -0.74000
C481        C  0.10786532  0.55358560  0.29489063     0.77800
C482        C  0.44265325  0.55239900  0.29300489     0.78300
C483        C  0.05689873  0.60932215  0.20598606     0.77200
C484        C  0.39177145  0.94282674  0.20546485     0.77600
C485        C  0.44191911  0.88921841  0.29418124     0.78700
C486        C  0.05346732  0.94263576  0.20690104     0.77800
C487        C  0.11693820  0.73785526  0.09518609    -0.04800
C488        C  0.14548958  0.72096779  0.08347202    -0.32200
C489        C  0.12509174  0.67991707  0.06645077     0.37000
C490        C  0.07521409  0.65432060  0.06176462    -0.05200
C491        C  0.04591598  0.66886978  0.07516578    -0.32100
C492        C  0.06660201  0.71079674  0.09185804     0.36900
H493        H  0.18349218  0.73899077  0.08813824     0.17300
O494        O  0.15406271  0.66477669  0.05466233    -0.59600
H495        H  0.00716810  0.64794006  0.07252204     0.17300
O496        O  0.03785896  0.72416692  0.10584302    -0.59700
H497        H  0.01364082  0.72210021  0.09245492     0.44300
H498        H  0.15274280  0.63990916  0.06740538     0.44200
C499        C  0.26349197  0.88168148  0.09373995    -0.04800
C500        C  0.30298209  0.92743536  0.10099988    -0.32200
C501        C  0.34597811  0.94834213  0.08577592     0.37000
C502        C  0.34944726  0.92473526  0.06200869    -0.05200
C503        C  0.30950316  0.88060385  0.05385695    -0.32100
C504        C  0.26718762  0.85864287  0.06960605     0.36900
H505        H  0.30067823  0.94709016  0.11866169     0.17300
O506        O  0.38394801  0.49236526  0.09395222    -0.59600
H507        H  0.31138051  0.86231712  0.03538346     0.17300
O508        O  0.22966397  0.81475889  0.06098881    -0.59700
H509        H  0.24288124  0.79272744  0.05927498     0.44300
H510        H  0.37948815  0.51700769  0.08415220     0.44200
C511        C  0.12386183  0.88493232  0.09170883    -0.04800
C512        C  0.13564713  0.93323060  0.09645956    -0.32200
C513        C  0.11446755  0.95450850  0.08104942     0.37000
C514        C  0.08260346  0.92827576  0.05945308    -0.05200
C515        C  0.07327413  0.88127780  0.05333442    -0.32100
C516        C  0.09297989  0.85925764  0.06950562     0.36900
H517        H  0.16188826  0.95497606  0.11188394     0.17300
O518        O  0.12699222  0.00175296  0.08634637    -0.59600
H519        H  0.04938019  0.86090436  0.03644302     0.17300
O520        O  0.08159422  0.81256829  0.06353680    -0.59700
H521        H  0.04619525  0.79240757  0.06582482     0.44300
H522        H  0.10631854  0.00001662  0.10201881     0.44200
C523        C  0.07914058  0.65416749  0.18896212    -0.04800
C524        C  0.05748770  0.68291061  0.18832147    -0.32200
C525        C  0.07745652  0.72567678  0.17285632     0.37000
C526        C  0.11901131  0.73992913  0.15700486    -0.05200
C527        C  0.14091054  0.71152290  0.15748839    -0.32100
C528        C  0.12149972  0.66906587  0.17337103     0.36900
H529        H  0.02513764  0.67258469  0.20015454     0.17300
O530        O  0.05523227  0.75257797  0.17281687    -0.59600
H531        H  0.17323375  0.72239163  0.14550203     0.17300
O532        O  0.14407487  0.64238965  0.17327938    -0.59700
H533        H  0.12836179  0.61814388  0.15825235     0.44300
H534        H  0.06771698  0.77367193  0.18942409     0.44200
C535        C  0.34716544  0.91969815  0.18908867    -0.04800
C536        C  0.30961552  0.92719936  0.19684551    -0.34600
C537        C  0.26653731  0.90629506  0.18180637     0.37000
C538        C  0.26100018  0.87788508  0.15809237    -0.05200
C539        C  0.29764300  0.86772576  0.15157997    -0.32100
C540        C  0.34061123  0.88871252  0.16670568     0.36900
H541        H  0.31352968  0.94914082  0.21489772     0.17300
O542        O  0.22979413  0.91288066  0.19084113    -0.59600
H543        H  0.29340733  0.84420600  0.13430081     0.17300
O544        O  0.37683009  0.88064137  0.15862640    -0.59700
H545        H  0.36911246  0.84946269  0.16732917     0.44300
H546        H  0.24445552  0.94772403  0.19589642     0.44200
C547        C  0.12048984  0.88424982  0.15466574    -0.04800
C548        C  0.07106748  0.85664603  0.16001891    -0.32200
C549        C  0.04867337  0.87444604  0.17740038     0.37000
C550        C  0.07579665  0.92140856  0.18912474    -0.05200
C551        C  0.12526579  0.94933777  0.18307184    -0.32100
C552        C  0.14758082  0.93120301  0.16587623     0.36900
H553        H  0.04974718  0.82101379  0.15074524     0.17300
O554        O  0.50055173  0.84527235  0.18307419    -0.59600
H555        H  0.14698061  0.98555561  0.19162096     0.17300
O556        O  0.19578347  0.95949858  0.15990645    -0.59700
H557        H  0.20084998  0.99110553  0.15326936     0.44300
H558        H  0.48351021  0.84727272  0.16656139     0.44200
C559        C  0.38030110  0.61735156  0.40498099    -0.04800
C560        C  0.35129879  0.57548922  0.42039456    -0.32200
C561        C  0.37187201  0.55454287  0.43664482     0.37000
C562        C  0.42255995  0.57611860  0.43810840    -0.05200
C563        C  0.45144995  0.61868340  0.42285657    -0.32100
C564        C  0.43063170  0.63897115  0.40620534     0.36900
H565        H  0.31245721  0.55875271  0.41963957     0.17300
O566        O  0.34194367  0.51315320  0.45110554    -0.59600
H567        H  0.49034903  0.63618535  0.42364248     0.17300
O568        O  0.45972587  0.68082804  0.39189914    -0.59700
H569        H  0.46860720  0.67009801  0.37476492     0.44300
H570        H  0.33639908  0.52468904  0.46902390     0.44200
C571        C  0.37966982  0.75968780  0.40693350    -0.04800
C572        C  0.41688357  0.76861579  0.42523534    -0.32200
C573        C  0.43955459  0.81149327  0.44088165     0.37000
C574        C  0.42366838  0.84531700  0.43913322    -0.05200
C575        C  0.38516130  0.83530239  0.42144500    -0.32100
C576        C  0.36324378  0.79289421  0.40539408     0.36900
H577        H  0.42939483  0.74293580  0.42673882     0.17300
O578        O  0.47619933  0.81923073  0.45840736    -0.59600
H579        H  0.37226008  0.86063946  0.41984758     0.17300
O580        O  0.32580472  0.78416804  0.38827053    -0.59700
H581        H  0.29666790  0.76865005  0.40009695     0.44300
H582        H  0.00541136  0.83270788  0.44665502     0.44200
C583        C  0.23940143  0.61795834  0.40706778    -0.04800
C584        C  0.23329457  0.64731410  0.42630892    -0.32200
C585        C  0.19129038  0.62839847  0.44218047     0.37000
C586        C  0.15538718  0.57899812  0.43945426    -0.05200
C587        C  0.16253323  0.54938749  0.42076820    -0.32100
C588        C  0.20412082  0.56855134  0.40461777     0.36900
H589        H  0.26064703  0.68532767  0.42850125     0.17300
O590        O  0.18649423  0.65799780  0.46095623    -0.59600
H591        H  0.13551402  0.51130601  0.41844714     0.17300
O592        O  0.20982281  0.53879091  0.38640238    -0.59700
H593        H  0.23084660  0.52918374  0.39602324     0.44300
H594        H  0.17616246  0.67730658  0.45001354     0.44200
C595        C  0.37725206  0.61595076  0.34193573    -0.04800
C596        C  0.36615489  0.56804048  0.34691869    -0.32200
C597        C  0.38708149  0.54680699  0.33105706     0.37000
C598        C  0.41919632  0.57334457  0.30963852    -0.05200
C599        C  0.42863135  0.62038494  0.30384938    -0.32100
C600        C  0.40827735  0.64188621  0.31994386     0.36900
H601        H  0.34096902  0.54688385  0.36304952     0.17300
O602        O  0.37526016  0.49984300  0.33630754    -0.59600
H603        H  0.45293761  0.64103962  0.28724211     0.17300
O604        O  0.41989969  0.68867620  0.31435445    -0.59700
H605        H  0.44591607  0.70925456  0.32757120     0.44300
H606        H  0.34716614  0.97942038  0.32427312     0.44200
C607        C  0.38039579  0.76095382  0.34394776    -0.04800
C608        C  0.35223446  0.76639429  0.32383373    -0.32200
C609        C  0.37158482  0.80838521  0.30766343     0.37000
C610        C  0.41972707  0.84557701  0.31156771    -0.05200
C611        C  0.44786374  0.84013766  0.33161123    -0.32100
C612        C  0.42879480  0.79789356  0.34753253     0.36900
H613        H  0.31496306  0.73822010  0.32088524     0.17300
O614        O  0.34316480  0.81295805  0.28827762    -0.59600
H615        H  0.48529560  0.86806510  0.33428847     0.17300
O616        O  0.45842167  0.79149400  0.36517210    -0.59700
H617        H  0.47171643  0.81948032  0.37815039     0.44300
H618        H  0.32403672  0.82423806  0.29867096     0.44200
C619        C  0.23691325  0.61923809  0.34394301    -0.04800
C620        C  0.23102892  0.58716658  0.32240448    -0.32200
C621        C  0.18897222  0.56530391  0.30646419     0.37000
C622        C  0.15176577  0.57513523  0.31206482    -0.05200
C623        C  0.15768970  0.60744227  0.33347796    -0.32100
C624        C  0.20038298  0.63045589  0.34887787     0.36900
H625        H  0.25886876  0.57843516  0.31819940     0.17300
O626        O  0.18428593  0.03383776  0.28567673    -0.59600
H627        H  0.12984104  0.61618346  0.33760837     0.17300
O628        O  0.20640571  0.66467823  0.36817667    -0.59700
H629        H  0.22775681  0.69649130  0.35931238     0.44300
H630        H  0.16882603  0.00132073  0.29440199     0.44200
C631        C  0.33184192  0.66524997  0.84784598     0.46100
H632        H  0.33103370  0.66552896  0.82493040    -0.02900
C633        C  0.33334787  0.66462909  0.90157246     0.46200
H634        H  0.33392531  0.66431769  0.92451005    -0.02900
C635        C  0.35659368  0.63883184  0.85977801    -0.16600
C636        C  0.35850457  0.71624800  0.86089610    -0.16400
C637        C  0.28148705  0.64038795  0.86094200    -0.16700
C638        C  0.35742729  0.63874936  0.88813867    -0.16700
C639        C  0.35887453  0.71577266  0.88924196    -0.16300
C640        C  0.28250429  0.63986511  0.88929032    -0.16600
C641        C  0.16633495  0.83568190  0.65183822     0.46100
H642        H  0.16450040  0.83519204  0.67470569    -0.02900
C643        C  0.16783800  0.83395260  0.59817762     0.46200
H644        H  0.16782059  0.83309817  0.57530771    -0.02900
C645        C  0.21770382  0.85917674  0.63983585    -0.16600
C646        C  0.13975172  0.78424081  0.63965885    -0.16400
C647        C  0.14368443  0.86275738  0.63811858    -0.16700
C648        C  0.21866653  0.85875971  0.61118492    -0.16700
C649        C  0.14024795  0.78328233  0.61150268    -0.16300
C650        C  0.14425234  0.86187723  0.60977942    -0.16600
Zn651      Zn  0.03403763  0.96814729  0.98587978     1.49700
Zn652      Zn  0.43487459  0.96740123  0.98655553     1.49400
Zn653      Zn  0.50233582  0.00166736  0.54038647     1.49100
Zn654      Zn  0.03432306  0.56882085  0.98608888     1.49500
O655        O  0.50143000  0.00169762  0.99978973    -1.83500
O656        O  0.48995996  0.90942196  0.96315928    -0.74100
O657        O  0.38857860  0.94347209  0.51857832    -0.73900
O658        O  0.04011290  0.97102129  0.55487188    -0.73400
O659        O  0.42093753  0.90917422  0.96306698    -0.74100
O660        O  0.05858596  0.94485009  0.51675531    -0.73700
O661        O  0.43469672  0.96700959  0.55612707    -0.74300
O662        O  0.05674948  0.61639186  0.51793979    -0.73700
O663        O  0.42060076  0.51135357  0.96371580    -0.74500
O664        O  0.03368893  0.56956209  0.55529843    -0.73800
O665        O  0.48994166  0.58125065  0.96205817    -0.74300
O666        O  0.09345608  0.58343628  0.96396295    -0.74200
O667        O  0.09111562  0.51266132  0.96266681    -0.74000
C668        C  0.44608513  0.89039298  0.95594074     0.77800
C669        C  0.39332069  0.94627933  0.54473446     0.78300
C670        C  0.05938803  0.94941135  0.54286840     0.77200
C671        C  0.05370073  0.61113563  0.54403064     0.77600
C672        C  0.44557689  0.55513611  0.95551602     0.78700
C673        C  0.11099812  0.55736120  0.95625508     0.77800
Zn674      Zn  0.06607169  0.53193591  0.73698027     1.49700
Zn675      Zn  0.99861968  0.99935490  0.79077727     1.49400
Zn676      Zn  0.46761915  0.53242607  0.73603072     1.49100
Zn677      Zn  0.46595778  0.93153151  0.73675954     1.49500
O678        O  0.99957667  0.99886869  0.75025891    -1.83500
O679        O  0.11237546  0.55342584  0.76879401    -0.74100
O680        O  0.46128155  0.53040198  0.80499553    -0.73900
O681        O  0.01275207  0.59019376  0.71284338    -0.73400
O682        O  0.06666507  0.53582825  0.80635246    -0.74100
O683        O  0.08201192  0.59099205  0.71380934    -0.73700
O684        O  0.44396204  0.55712431  0.76691242    -0.74300
O685        O  0.41076984  0.91786690  0.71216315    -0.73700
O686        O  0.46547655  0.93089395  0.80560385    -0.74500
O687        O  0.40936537  0.98676504  0.71334954    -0.73800
O688        O  0.43803858  0.88416819  0.76808944    -0.74300
O689        O  0.00997882  0.91653995  0.71477415    -0.74200
O690        O  0.07840318  0.98723500  0.71379609    -0.74000
C691        C  0.10786239  0.55358748  0.79488962     0.77800
C692        C  0.44264545  0.55239549  0.79300309     0.78300
C693        C  0.05689766  0.60932643  0.70598678     0.77200
C694        C  0.39177093  0.94282710  0.70546186     0.77600
C695        C  0.44191966  0.88921847  0.79417826     0.78700
C696        C  0.05346731  0.94264081  0.70689878     0.77800
C697        C  0.11693499  0.73785351  0.59518862    -0.04800
C698        C  0.14548748  0.72096805  0.58347373    -0.32200
C699        C  0.12509001  0.67991547  0.56645386     0.37000
C700        C  0.07521176  0.65431536  0.56176966    -0.05200
C701        C  0.04591292  0.66886237  0.57517208    -0.32100
C702        C  0.06659841  0.71079095  0.59186305     0.36900
H703        H  0.18349089  0.73899427  0.58813821     0.17300
O704        O  0.15406205  0.66477701  0.55466479    -0.59600
H705        H  0.00716480  0.64793032  0.57252982     0.17300
O706        O  0.03785461  0.72415943  0.60584855    -0.59700
H707        H  0.01363895  0.72209653  0.59245980     0.44300
H708        H  0.15274576  0.63991179  0.56740837     0.44200
C709        C  0.26348883  0.88167779  0.59373809    -0.04800
C710        C  0.30298134  0.92742956  0.60099879    -0.32200
C711        C  0.34597712  0.94833438  0.58577491     0.37000
C712        C  0.34944386  0.92472862  0.56200650    -0.05200
C713        C  0.30949736  0.88059986  0.55385353    -0.32100
C714        C  0.26718180  0.85864012  0.56960282     0.36900
H715        H  0.30067962  0.94708456  0.61866111     0.17300
O716        O  0.38394986  0.49235711  0.59395305    -0.59600
H717        H  0.31137276  0.86231426  0.53537903     0.17300
O718        O  0.22965548  0.81475878  0.56098431    -0.59700
H719        H  0.24287012  0.79272545  0.55926744     0.44300
H720        H  0.37949715  0.51700201  0.58415061     0.44200
C721        C  0.12386230  0.88493372  0.59170773    -0.04800
C722        C  0.13565191  0.93323361  0.59645687    -0.32200
C723        C  0.11447297  0.95451192  0.58104686     0.37000
C724        C  0.08260577  0.92827775  0.55945214    -0.05200
C725        C  0.07327246  0.88127815  0.55333470    -0.32100
C726        C  0.09297741  0.85925760  0.56950598     0.36900
H727        H  0.16189572  0.95497969  0.61187989     0.17300
O728        O  0.12700090  0.00175769  0.58634243    -0.59600
H729        H  0.04937589  0.86090387  0.53644440     0.17300
O730        O  0.08158750  0.81256645  0.56353896    -0.59700
H731        H  0.04618949  0.79240758  0.56583253     0.44300
H732        H  0.10631577  0.00002249  0.60200818     0.44200
C733        C  0.07914026  0.65417272  0.68896404    -0.04800
C734        C  0.05749004  0.68291834  0.68832578    -0.32200
C735        C  0.07745894  0.72568453  0.67286076     0.37000
C736        C  0.11901090  0.73993408  0.65700719    -0.05200
C737        C  0.14090831  0.71152614  0.65748909    -0.32100
C738        C  0.12149742  0.66906911  0.67337149     0.36900
H739        H  0.02514179  0.67259399  0.70016034     0.17300
O740        O  0.05523705  0.75258798  0.67282316    -0.59600
H741        H  0.17322971  0.72239314  0.64550129     0.17300
O742        O  0.14407021  0.64239061  0.67327795    -0.59700
H743        H  0.12835297  0.61814368  0.65825189     0.44300
H744        H  0.06772732  0.77368442  0.68942914     0.44200
C745        C  0.34716469  0.91969842  0.68908583    -0.04800
C746        C  0.30961854  0.92720710  0.69684032    -0.34600
C747        C  0.26653980  0.90630289  0.68180188     0.37000
C748        C  0.26099878  0.87788622  0.65809053    -0.05200
C749        C  0.29763760  0.86772012  0.65158021    -0.32100
C750        C  0.34060593  0.88870563  0.66670582     0.36900
H751        H  0.31353587  0.94915412  0.71489047     0.17300
O752        O  0.22979965  0.91289482  0.69083484    -0.59600
H753        H  0.29339854  0.84419582  0.63430281     0.17300
O754        O  0.37682038  0.88062577  0.65862929    -0.59700
H755        H  0.36909368  0.84944352  0.66733093     0.44300
H756        H  0.24446437  0.94773907  0.69588892     0.44200
C757        C  0.12049012  0.88425445  0.65466411    -0.04800
C758        C  0.07106821  0.85664976  0.66001831    -0.32200
C759        C  0.04867403  0.87444998  0.67739956     0.37000
C760        C  0.07579676  0.92141372  0.68912253    -0.05200
C761        C  0.12526539  0.94934379  0.68306856    -0.32100
C762        C  0.14758049  0.93120887  0.66587313     0.36900
H763        H  0.04974835  0.82101652  0.65074576     0.17300
O764        O  0.50055359  0.84527444  0.68307607    -0.59600
H765        H  0.14697982  0.98556242  0.69161673     0.17300
O766        O  0.19578264  0.95950527  0.65990231    -0.59700
H767        H  0.20084848  0.99111254  0.65326630     0.44300
H768        H  0.48350937  0.84726298  0.66656121     0.44200
C769        C  0.38029944  0.61735295  0.90497895    -0.04800
C770        C  0.35129739  0.57549441  0.92039548    -0.32200
C771        C  0.37187053  0.55454731  0.93664529     0.37000
C772        C  0.42255830  0.57611857  0.93810548    -0.05200
C773        C  0.45144811  0.61867932  0.92285042    -0.32100
C774        C  0.43062983  0.63896766  0.90619960     0.36900
H775        H  0.31245603  0.55876141  0.91964318     0.17300
O776        O  0.34194236  0.51316137  0.95110893    -0.59600
H777        H  0.49034707  0.63617766  0.92363354     0.17300
O778        O  0.45972399  0.68082061  0.89189017    -0.59700
H779        H  0.46860559  0.67008594  0.87475783     0.44300
H780        H  0.33639927  0.52470175  0.96902613     0.44200
C781        C  0.37966790  0.75969090  0.90693049    -0.04800
C782        C  0.41688055  0.76861862  0.92523309    -0.32200
C783        C  0.43955055  0.81149572  0.94087971     0.37000
C784        C  0.42366478  0.84531978  0.93913083    -0.05200
C785        C  0.38515895  0.83530582  0.92144166    -0.32100
C786        C  0.36324225  0.79289776  0.90539040     0.36900
H787        H  0.42939153  0.74293850  0.92673712     0.17300
O788        O  0.47619378  0.81923238  0.95840642    -0.59600
H789        H  0.37225805  0.86064309  0.91984389     0.17300
O790        O  0.32580403  0.78417185  0.88826622    -0.59700
H791        H  0.29666541  0.76864492  0.90009101     0.44300
H792        H  0.00540567  0.83270923  0.94665491     0.44200
C793        C  0.23940100  0.61795924  0.90706822    -0.04800
C794        C  0.23329502  0.64731387  0.92631063    -0.32200
C795        C  0.19129206  0.62839695  0.94218333     0.37000
C796        C  0.15538877  0.57899679  0.93945647    -0.05200
C797        C  0.16253461  0.54938693  0.92076976    -0.32100
C798        C  0.20412146  0.56855187  0.90461860     0.36900
H799        H  0.26064726  0.68532747  0.92850321     0.17300
O800        O  0.18649711  0.65799480  0.96096077    -0.59600
H801        H  0.13551563  0.51130541  0.91844855     0.17300
O802        O  0.20982406  0.53879213  0.88640301    -0.59700
H803        H  0.23084080  0.52917798  0.89602586     0.44300
H804        H  0.17616155  0.67730218  0.95001978     0.44200
C805        C  0.37724627  0.61594940  0.84193383    -0.04800
C806        C  0.36614713  0.56803841  0.84691659    -0.32200
C807        C  0.38707233  0.54680370  0.83105467     0.37000
C808        C  0.41918802  0.57334100  0.80963636    -0.05200
C809        C  0.42862483  0.62038206  0.80384745    -0.32100
C810        C  0.40827208  0.64188441  0.81994207     0.36900
H811        H  0.34096129  0.54688255  0.86304762     0.17300
O812        O  0.37524929  0.49983908  0.83630477    -0.59600
H813        H  0.45293183  0.64103654  0.78724043     0.17300
O814        O  0.41989658  0.68867517  0.81435317    -0.59700
H815        H  0.44591299  0.70925228  0.82757022     0.44300
H816        H  0.34715041  0.97941755  0.82427137     0.44200
C817        C  0.38039422  0.76095351  0.84394457    -0.04800
C818        C  0.35223405  0.76639403  0.82382980    -0.32200
C819        C  0.37158559  0.80838473  0.80765926     0.37000
C820        C  0.41972779  0.84557626  0.81156404    -0.05200
C821        C  0.44786384  0.84013629  0.83160771    -0.32100
C822        C  0.42879371  0.79789237  0.84752929     0.36900
H823        H  0.31496251  0.73822037  0.82088110     0.17300
O824        O  0.34316663  0.81295804  0.78827290    -0.59600
H825        H  0.48529579  0.86806330  0.83428513     0.17300
O826        O  0.45841967  0.79149223  0.86516929    -0.59700
H827        H  0.47171466  0.81947875  0.87814747     0.44300
H828        H  0.32403226  0.82423015  0.79866650     0.44200
C829        C  0.23690900  0.61923754  0.84394316    -0.04800
C830        C  0.23102453  0.58716584  0.82240469    -0.32200
C831        C  0.18896802  0.56530360  0.80646423     0.37000
C832        C  0.15176220  0.57513607  0.81206434    -0.05200
C833        C  0.15768598  0.60744279  0.83347766    -0.32100
C834        C  0.20037875  0.63045534  0.84887810     0.36900
H835        H  0.25886422  0.57843417  0.81819970     0.17300
O836        O  0.18428021  0.03383544  0.78567761    -0.59600
H837        H  0.12983760  0.61618449  0.83760784     0.17300
O838        O  0.20640126  0.66467698  0.86817733    -0.59700
H839        H  0.22774767  0.69649033  0.85931212     0.44300
H840        H  0.16882311  0.00131927  0.79440376     0.44200
C841        C  0.83184568  0.16524885  0.34784773     0.46100
H842        H  0.83103866  0.16552912  0.32493216    -0.02900
C843        C  0.83334842  0.16462498  0.40157423     0.46200
H844        H  0.83392453  0.16431240  0.42451183    -0.02900
C845        C  0.85659697  0.13883028  0.35977981    -0.16600
C846        C  0.85850724  0.21624615  0.36089882    -0.16400
C847        C  0.78149009  0.14038609  0.36094273    -0.16700
C848        C  0.85742864  0.13874615  0.38814050    -0.16700
C849        C  0.85887610  0.21576911  0.38924470    -0.16300
C850        C  0.78250558  0.13986187  0.38929105    -0.16600
C851        C  0.66633578  0.33567859  0.15183855     0.46100
H852        H  0.66449957  0.33518626  0.17470595    -0.02900
C853        C  0.66784117  0.33395376  0.09817800     0.46200
H854        H  0.66782534  0.33310101  0.07530805    -0.02900
C855        C  0.71770556  0.35917606  0.13983700    -0.16600
C856        C  0.63975439  0.28423833  0.13965797    -0.16400
C857        C  0.64368426  0.36275385  0.13811946    -0.16700
C858        C  0.71866920  0.35876148  0.11118608    -0.16700
C859        C  0.64025186  0.28328229  0.11150180    -0.16300
C860        C  0.64425319  0.36187597  0.10978021    -0.16600
Zn861      Zn  0.53404051  0.46814873  0.48587973     1.49700
Zn862      Zn  0.93487621  0.46739814  0.48655531     1.49400
Zn863      Zn  0.00233838  0.50167094  0.04038575     1.49100
Zn864      Zn  0.53432424  0.06882053  0.48609153     1.49500
O865        O  0.00143079  0.50169639  0.49979037    -1.83500
O866        O  0.98996397  0.40941921  0.46316137    -0.74100
O867        O  0.88858025  0.44347812  0.01857997    -0.73900
O868        O  0.54011473  0.47102370  0.05487164    -0.73400
O869        O  0.92094167  0.40917145  0.46306792    -0.74100
O870        O  0.55858039  0.44484473  0.01675562    -0.73700
O871        O  0.93470008  0.46701691  0.05612815    -0.74300
O872        O  0.55674770  0.11639408  0.01793617    -0.73700
O873        O  0.92060365  0.01135092  0.46371589    -0.74500
O874        O  0.53369441  0.06956655  0.05529573    -0.73800
O875        O  0.98994196  0.08125140  0.46206320    -0.74300
O876        O  0.59345613  0.08343755  0.46396348    -0.74200
O877        O  0.59111523  0.01266248  0.46266558    -0.74000
C878        C  0.94608912  0.39038957  0.45594281     0.77800
C879        C  0.89332355  0.44628674  0.04473607     0.78300
C880        C  0.55938599  0.44940947  0.04286864     0.77200
C881        C  0.55370279  0.11113929  0.04402710     0.77600
C882        C  0.94557841  0.05513518  0.45551879     0.78700
C883        C  0.61099726  0.05736240  0.45625407     0.77800
Zn884      Zn  0.56607346  0.03193334  0.23698131     1.49700
Zn885      Zn  0.49862305  0.49935377  0.29077898     1.49400
Zn886      Zn  0.96762194  0.03242464  0.23603226     1.49100
Zn887      Zn  0.96595798  0.43152849  0.23676218     1.49500
O888        O  0.49957874  0.49886644  0.25026060    -1.83500
O889        O  0.61237809  0.05342399  0.26879471    -0.74100
O890        O  0.96128806  0.03040351  0.30499708    -0.73900
O891        O  0.51275465  0.09019119  0.21284373    -0.73400
O892        O  0.56666873  0.03582598  0.30635364    -0.74100
O893        O  0.58201414  0.09098881  0.21380909    -0.73700
O894        O  0.94396817  0.05712603  0.26691420    -0.74300
O895        O  0.91077046  0.41786547  0.21216574    -0.73700
O896        O  0.96547729  0.43089306  0.30560655    -0.74500
O897        O  0.90936582  0.48676355  0.21335277    -0.73800
O898        O  0.93803706  0.38416598  0.26809275    -0.74300
O899        O  0.50997855  0.41653483  0.21477675    -0.74200
O900        O  0.57840309  0.48722982  0.21379797    -0.74000
C901        C  0.60786574  0.05358551  0.29489039     0.77800
C902        C  0.94265243  0.05239762  0.29300489     0.78300
C903        C  0.55689988  0.10932314  0.20598637     0.77200
C904        C  0.89177139  0.44282574  0.20546487     0.77600
C905        C  0.94191872  0.38921725  0.29418155     0.78700
C906        C  0.55346699  0.44263545  0.20690105     0.77800
C907        C  0.61693855  0.23785497  0.09518653    -0.04800
C908        C  0.64549016  0.22096793  0.08347223    -0.32200
C909        C  0.62509228  0.17991677  0.06645126     0.37000
C910        C  0.57521451  0.15431969  0.06176541    -0.05200
C911        C  0.54591628  0.16886839  0.07516691    -0.32100
C912        C  0.56660222  0.21079554  0.09185903     0.36900
H913        H  0.68349290  0.23899152  0.08813807     0.17300
O914        O  0.65406336  0.16477660  0.05466277    -0.59600
H915        H  0.50716836  0.14793825  0.07252345     0.17300
O916        O  0.53785899  0.22416525  0.10584419    -0.59700
H917        H  0.51364195  0.22210028  0.09245582     0.44300
H918        H  0.65274296  0.13990855  0.06740557     0.44200
C919        C  0.76349184  0.38168178  0.09373970    -0.04800
C920        C  0.80298203  0.42743555  0.10099977    -0.32200
C921        C  0.84597808  0.44834237  0.08577582     0.37000
C922        C  0.84944714  0.42473574  0.06200847    -0.05200
C923        C  0.80950294  0.38060455  0.05385658    -0.32100
C924        C  0.76718737  0.35864341  0.06960563     0.36900
H925        H  0.80067822  0.44709016  0.11866166     0.17300
O926        O  0.88394750  0.99236572  0.09395196    -0.59600
H927        H  0.81138029  0.36231804  0.03538296     0.17300
O928        O  0.72966369  0.31475953  0.06098824    -0.59700
H929        H  0.74288091  0.29272803  0.05927433     0.44300
H930        H  0.87948745  0.01700778  0.08415167     0.44200
C931        C  0.62386190  0.38493219  0.09170875    -0.04800
C932        C  0.63564802  0.43323081  0.09645910    -0.32200
C933        C  0.61446860  0.45450876  0.08104892     0.37000
C934        C  0.58260389  0.42827573  0.05945291    -0.05200
C935        C  0.57327369  0.38127736  0.05333461    -0.32100
C936        C  0.59297933  0.35925714  0.06950586     0.36900
H937        H  0.66188960  0.45497642  0.11188329     0.17300
O938        O  0.62699397  0.50175355  0.08634550    -0.59600
H939        H  0.54937918  0.36090364  0.03644346     0.17300
O940        O  0.58159295  0.31256746  0.06353743    -0.59700
H941        H  0.54619390  0.29240718  0.06582550     0.44300
H942        H  0.60632033  0.50001786  0.10201781     0.44200
C943        C  0.57914195  0.15416871  0.18896271    -0.04800
C944        C  0.55749022  0.18291293  0.18832308    -0.32200
C945        C  0.57745891  0.22567898  0.17285788     0.37000
C946        C  0.61901229  0.23993004  0.15700535    -0.05200
C947        C  0.64091060  0.21152291  0.15748809    -0.32100
C948        C  0.62150000  0.16906605  0.17337081     0.36900
H949        H  0.52514111  0.17258788  0.20015691     0.17300
O950        O  0.55523571  0.25258119  0.17281932    -0.59600
H951        H  0.67323288  0.22239074  0.14550096     0.17300
O952        O  0.64407413  0.14238884  0.17327833    -0.59700
H953        H  0.62835959  0.11814290  0.15825152     0.44300
H954        H  0.56772256  0.27367586  0.18942617     0.44200
C955        C  0.84716548  0.41969728  0.18908857    -0.04800
C956        C  0.80961570  0.42719867  0.19684544    -0.34600
C957        C  0.76653767  0.40629501  0.18180622     0.37000
C958        C  0.76100044  0.37788525  0.15809214    -0.05200
C959        C  0.79764310  0.36772573  0.15157965    -0.32100
C960        C  0.84061130  0.38871203  0.16670540     0.36900
H961        H  0.81352992  0.44914001  0.21489773     0.17300
O962        O  0.72979485  0.41288124  0.19084093    -0.59600
H963        H  0.79340730  0.34420612  0.13430037     0.17300
O964        O  0.87683008  0.38064084  0.15862599    -0.59700
H965        H  0.86911213  0.34946181  0.16732842     0.44300
H966        H  0.74445657  0.44772480  0.19589580     0.44200
C967        C  0.62048975  0.38424990  0.15466564    -0.04800
C968        C  0.57106744  0.35664590  0.16001888    -0.32200
C969        C  0.54867319  0.37444575  0.17740035     0.37000
C970        C  0.57579636  0.42140829  0.18912475    -0.05200
C971        C  0.62526552  0.44933765  0.18307183    -0.32100
C972        C  0.64758060  0.43120309  0.16587614     0.36900
H973        H  0.54974726  0.32101358  0.15074527     0.17300
O974        O  0.00055125  0.34527225  0.18307418    -0.59600
H975        H  0.64698031  0.48555543  0.19162099     0.17300
O976        O  0.69578324  0.45949875  0.15990640    -0.59700
H977        H  0.70084965  0.49110557  0.15326919     0.44300
H978        H  0.98351002  0.34727294  0.16656133     0.44200
C979        C  0.88030079  0.11735025  0.40498102    -0.04800
C980        C  0.85129851  0.07548790  0.42039458    -0.32200
C981        C  0.87187182  0.05454160  0.43664483     0.37000
C982        C  0.92255974  0.07611745  0.43810840    -0.05200
C983        C  0.95144961  0.11868218  0.42285655    -0.32100
C984        C  0.93063136  0.13896988  0.40620533     0.36900
H985        H  0.81245693  0.05875136  0.41963960     0.17300
O986        O  0.84194358  0.01315187  0.45110552    -0.59600
H987        H  0.99034871  0.13618418  0.42364245     0.17300
O988        O  0.95972555  0.18082678  0.39189914    -0.59700
H989        H  0.96860629  0.17009669  0.37476472     0.44300
H990        H  0.83639865  0.02468764  0.46902382     0.44200
C991        C  0.87966927  0.25968620  0.40693403    -0.04800
C992        C  0.91688286  0.26861398  0.42523595    -0.32200
C993        C  0.93955413  0.31149153  0.44088222     0.37000
C994        C  0.92366820  0.34531551  0.43913376    -0.05200
C995        C  0.88516105  0.33530098  0.42144557    -0.32100
C996        C  0.86324338  0.29289277  0.40539463     0.36900
H997        H  0.92939399  0.24293389  0.42673941     0.17300
O998        O  0.97619895  0.31922889  0.45840783    -0.59600
H999        H  0.87225997  0.36063813  0.41984812     0.17300
O1000       O  0.82580455  0.28416681  0.38827098    -0.59700
H1001       H  0.79666775  0.26864978  0.40009747     0.44300
H1002       H  0.50541030  0.33270810  0.44665567     0.44200
C1003       C  0.73940105  0.11795721  0.40706797    -0.04800
C1004       C  0.73329468  0.14731308  0.42630928    -0.32200
C1005       C  0.69129057  0.12839785  0.44218083     0.37000
C1006       C  0.65538689  0.07899777  0.43945447    -0.05200
C1007       C  0.66253241  0.04938700  0.42076825    -0.32100
C1008       C  0.70411994  0.06855044  0.40461783     0.36900
H1009       H  0.76064751  0.18532650  0.42850177     0.17300
O1010       O  0.68649488  0.15799730  0.46095671    -0.59600
H1011       H  0.63551279  0.01130567  0.41844705     0.17300
O1012       O  0.70982138  0.03878975  0.38640234    -0.59700
H1013       H  0.73084498  0.02918221  0.39602311     0.44300
H1014       H  0.67616333  0.17730637  0.45001411     0.44200
C1015       C  0.87725132  0.11594933  0.34193574    -0.04800
C1016       C  0.86615402  0.06803902  0.34691870    -0.32200
C1017       C  0.88708049  0.04680541  0.33105707     0.37000
C1018       C  0.91919532  0.07334298  0.30963849    -0.05200
C1019       C  0.92863033  0.12038332  0.30384923    -0.32100
C1020       C  0.90827643  0.14188465  0.31994375     0.36900
H1021       H  0.84096819  0.04688250  0.36304959     0.17300
O1022       O  0.87525927  0.99984147  0.33630771    -0.59600
H1023       H  0.95293648  0.14103787  0.28724192     0.17300
O1024       O  0.91989866  0.18867456  0.31435424    -0.59700
H1025       H  0.94591434  0.20925299  0.32757132     0.44300
H1026       H  0.84716427  0.47941846  0.32427310     0.44200
C1027       C  0.88039544  0.26095259  0.34394811    -0.04800
C1028       C  0.85223446  0.26639257  0.32383361    -0.32200
C1029       C  0.87158487  0.30838340  0.30766325     0.37000
C1030       C  0.91972671  0.34557581  0.31156803    -0.05200
C1031       C  0.94786309  0.34013699  0.33161199    -0.32100
C1032       C  0.92879420  0.29789283  0.34753326     0.36900
H1033       H  0.81496328  0.23821804  0.32088477     0.17300
O1034       O  0.84316529  0.31295556  0.28827684    -0.59600
H1035       H  0.98529471  0.36806478  0.33428957     0.17300
O1036       O  0.95842096  0.29149372  0.36517316    -0.59700
H1037       H  0.97171536  0.31948017  0.37815138     0.44300
H1038       H  0.82403727  0.32423627  0.29866957     0.44200
C1039       C  0.73691305  0.11923709  0.34394312    -0.04800
C1040       C  0.73102902  0.08716604  0.32240439    -0.32200
C1041       C  0.68897249  0.06530355  0.30646399     0.37000
C1042       C  0.65176597  0.07513474  0.31206468    -0.05200
C1043       C  0.65768967  0.10744144  0.33347798    -0.32100
C1044       C  0.70038278  0.13045483  0.34887801     0.36900
H1045       H  0.75886899  0.07843484  0.31819924     0.17300
O1046       O  0.68428603  0.53383752  0.28567673    -0.59600
H1047       H  0.62984099  0.11618258  0.33760840     0.17300
O1048       O  0.70640541  0.16467700  0.36817691    -0.59700
H1049       H  0.72775625  0.19649017  0.35931265     0.44300
H1050       H  0.66882673  0.50132049  0.29440195     0.44200
C1051       C  0.83184237  0.16525094  0.84784594     0.46100
H1052       H  0.83103428  0.16553003  0.82493035    -0.02900
C1053       C  0.83334811  0.16462996  0.90157249     0.46200
H1054       H  0.83392551  0.16431856  0.92451006    -0.02900
C1055       C  0.85659446  0.13883315  0.85977800    -0.16600
C1056       C  0.85850461  0.21624891  0.86089610    -0.16400
C1057       C  0.78148742  0.14038863  0.86094191    -0.16700
C1058       C  0.85742787  0.13875051  0.88813868    -0.16700
C1059       C  0.85887452  0.21577351  0.88924195    -0.16300
C1060       C  0.78250458  0.13986576  0.88929025    -0.16600
C1061       C  0.66633488  0.33568188  0.65183827     0.46100
H1062       H  0.66450005  0.33519169  0.67470574    -0.02900
C1063       C  0.66783842  0.33395320  0.59817765     0.46200
H1064       H  0.66782126  0.33309906  0.57530774    -0.02900
C1065       C  0.71770388  0.35917677  0.63983602    -0.16600
C1066       C  0.63975156  0.28424092  0.63965873    -0.16400
C1067       C  0.64368461  0.36275766  0.63811863    -0.16700
C1068       C  0.71866682  0.35876002  0.61118508    -0.16700
C1069       C  0.64024807  0.28328279  0.61150256    -0.16300
C1070       C  0.64425280  0.36187786  0.60977946    -0.16600
Zn1071     Zn  0.53403809  0.46814716  0.98587957     1.49700
Zn1072     Zn  0.93487439  0.46740199  0.98655533     1.49400
Zn1073     Zn  0.00233620  0.50166676  0.54038650     1.49100
Zn1074     Zn  0.53432332  0.06882031  0.98608928     1.49500
O1075       O  0.00142974  0.50169833  0.99978953    -1.83500
O1076       O  0.98995969  0.40942255  0.96315931    -0.74100
O1077       O  0.88857911  0.44347187  0.51857860    -0.73900
O1078       O  0.54011361  0.47102220  0.55487175    -0.73400
O1079       O  0.92093732  0.40917493  0.96306691    -0.74100
O1080       O  0.55858580  0.44485021  0.51675519    -0.73700
O1081       O  0.93469727  0.46700917  0.55612732    -0.74300
O1082       O  0.55674946  0.11639243  0.51793952    -0.73700
O1083       O  0.92060085  0.01135488  0.96371622    -0.74500
O1084       O  0.53368841  0.06956283  0.55529824    -0.73800
O1085       O  0.98994212  0.08125151  0.96205820    -0.74300
O1086       O  0.59345635  0.08343606  0.96396317    -0.74200
O1087       O  0.59111584  0.01266109  0.96266665    -0.74000
C1088       C  0.94608488  0.39039363  0.95594074     0.77800
C1089       C  0.89332123  0.44627913  0.54473475     0.78300
C1090       C  0.55938841  0.44941193  0.54286826     0.77200
C1091       C  0.55370041  0.11113633  0.54403036     0.77600
C1092       C  0.94557719  0.05513730  0.95551629     0.78700
C1093       C  0.61099835  0.05736106  0.95625506     0.77800
Zn1094     Zn  0.56607156  0.03193604  0.73698025     1.49700
Zn1095     Zn  0.49861932  0.49935397  0.79077750     1.49400
Zn1096     Zn  0.96761929  0.03242670  0.73603064     1.49100
Zn1097     Zn  0.96595769  0.43153174  0.73675959     1.49500
O1098       O  0.49957641  0.49886808  0.75025911    -1.83500
O1099       O  0.61237551  0.05342599  0.76879401    -0.74100
O1100       O  0.96128265  0.03040362  0.80499529    -0.73900
O1101       O  0.51275127  0.09019331  0.71284323    -0.73400
O1102       O  0.56666514  0.03582802  0.80635248    -0.74100
O1103       O  0.58201134  0.09099208  0.71380934    -0.73700
O1104       O  0.94396284  0.05712580  0.76691226    -0.74300
O1105       O  0.91076978  0.41786757  0.71216330    -0.73700
O1106       O  0.96547609  0.43089494  0.80560392    -0.74500
O1107       O  0.90936563  0.48676589  0.71334951    -0.73800
O1108       O  0.93803848  0.38416873  0.76808963    -0.74300
O1109       O  0.50997876  0.41653938  0.71477438    -0.74200
O1110       O  0.57840292  0.48723458  0.71379636    -0.74000
C1111       C  0.60786248  0.05358754  0.79488963     0.77800
C1112       C  0.94264663  0.05239727  0.79300293     0.78300
C1113       C  0.55689690  0.10932618  0.70598663     0.77200
C1114       C  0.89177102  0.44282786  0.70546194     0.77600
C1115       C  0.94191931  0.38921936  0.79417844     0.78700
C1116       C  0.55346723  0.44264039  0.70689904     0.77800
C1117       C  0.61693493  0.23785413  0.59518838    -0.04800
C1118       C  0.64548724  0.22096846  0.58347354    -0.32200
C1119       C  0.62508965  0.17991601  0.56645358     0.37000
C1120       C  0.57521146  0.15431614  0.56176930    -0.05200
C1121       C  0.54591268  0.16886339  0.57517160    -0.32100
C1122       C  0.56659836  0.21079193  0.59186262     0.36900
H1123       H  0.68349065  0.23899445  0.58813807     0.17300
O1124       O  0.65406156  0.16477747  0.55466440    -0.59600
H1125       H  0.50716461  0.14793160  0.57252918     0.17300
O1126       O  0.53785466  0.22416076  0.60584794    -0.59700
H1127       H  0.51363919  0.22209793  0.59245911     0.44300
H1128       H  0.65274713  0.13991391  0.56740860     0.44200
C1129       C  0.76348920  0.38167806  0.59373830    -0.04800
C1130       C  0.80298182  0.42742978  0.60099902    -0.32200
C1131       C  0.84597769  0.44833446  0.58577522     0.37000
C1132       C  0.84944440  0.42472867  0.56200682    -0.05200
C1133       C  0.80949776  0.38060009  0.55385383    -0.32100
C1134       C  0.76718214  0.35864045  0.56960302     0.36900
H1135       H  0.80068016  0.44708483  0.61866132     0.17300
O1136       O  0.88394910  0.99235762  0.59395225    -0.59600
H1137       H  0.81137311  0.36231450  0.53537929     0.17300
O1138       O  0.72965572  0.31475925  0.56098435    -0.59700
H1139       H  0.74287012  0.29272570  0.55926762     0.44300
H1140       H  0.87949636  0.01700203  0.58414924     0.44200
C1141       C  0.62386293  0.38493450  0.59170770    -0.04800
C1142       C  0.63565186  0.43323416  0.59645710    -0.32200
C1143       C  0.61447290  0.45451238  0.58104701     0.37000
C1144       C  0.58260638  0.42827847  0.55945199    -0.05200
C1145       C  0.57327383  0.38127918  0.55333429    -0.32100
C1146       C  0.59297879  0.35925870  0.56950561     0.36900
H1147       H  0.66189508  0.45498012  0.61188041     0.17300
O1148       O  0.62700004  0.50175787  0.58634288    -0.59600
H1149       H  0.54937772  0.36090498  0.53644380     0.17300
O1150       O  0.58158942  0.31256776  0.56353833    -0.59700
H1151       H  0.54619136  0.29240858  0.56583148     0.44300
H1152       H  0.60631385  0.50002190  0.60200822     0.44200
C1153       C  0.57913936  0.15417235  0.68896373    -0.04800
C1154       C  0.55748812  0.18291702  0.68832457    -0.32200
C1155       C  0.57745710  0.22568323  0.67285956     0.37000
C1156       C  0.61901023  0.23993387  0.65700688    -0.05200
C1157       C  0.64090838  0.21152667  0.65748948    -0.32100
C1158       C  0.62149743  0.16906961  0.67337188     0.36900
H1159       H  0.52513910  0.17259202  0.70015848     0.17300
O1160       O  0.55523433  0.25258582  0.67282123    -0.59600
H1161       H  0.67323053  0.22239435  0.64550226     0.17300
O1162       O  0.64407109  0.14239196  0.67327902    -0.59700
H1163       H  0.62835514  0.11814521  0.65825273     0.44300
H1164       H  0.56772241  0.27368121  0.68942773     0.44200
C1165       C  0.84716478  0.41969915  0.68908595    -0.04800
C1166       C  0.80961824  0.42720703  0.69684071    -0.34600
C1167       C  0.76653946  0.40630256  0.68180229     0.37000
C1168       C  0.76099873  0.37788622  0.65809081    -0.05200
C1169       C  0.79763794  0.36772078  0.65158033    -0.32100
C1170       C  0.84060644  0.38870682  0.66670575     0.36900
H1171       H  0.81353529  0.44915363  0.71489098     0.17300
O1172       O  0.72979898  0.41289386  0.69083540    -0.59600
H1173       H  0.79339912  0.34419675  0.63430282     0.17300
O1174       O  0.87682146  0.38062810  0.65862888    -0.59700
H1175       H  0.86909580  0.34944618  0.66733055     0.44300
H1176       H  0.74446336  0.44773805  0.69588963     0.44200
C1177       C  0.62049027  0.38425464  0.65466421    -0.04800
C1178       C  0.57106840  0.35664995  0.66001837    -0.32200
C1179       C  0.54867417  0.37444984  0.67739977     0.37000
C1180       C  0.57579681  0.42141348  0.68912281    -0.05200
C1181       C  0.62526543  0.44934372  0.68306889    -0.32100
C1182       C  0.64758058  0.43120888  0.66587341     0.36900
H1183       H  0.54974853  0.32101682  0.65074562     0.17300
O1184       O  0.00055336  0.34527430  0.68307585    -0.59600
H1185       H  0.64697973  0.48556229  0.69161712     0.17300
O1186       O  0.69578274  0.45950521  0.65990273    -0.59700
H1187       H  0.70084862  0.49111250  0.65326670     0.44300
H1188       H  0.98350915  0.34726274  0.66656095     0.44200
C1189       C  0.88030001  0.11735410  0.90497899    -0.04800
C1190       C  0.85129793  0.07549603  0.92039589    -0.32200
C1191       C  0.87187098  0.05454902  0.93664583     0.37000
C1192       C  0.92255873  0.07611989  0.93810580    -0.05200
C1193       C  0.95144864  0.11868024  0.92285042    -0.32100
C1194       C  0.93063042  0.13896848  0.90619945     0.36900
H1195       H  0.81245658  0.05876331  0.91964380     0.17300
O1196       O  0.84194274  0.01316342  0.95110976    -0.59600
H1197       H  0.99034757  0.13617830  0.92363339     0.17300
O1198       O  0.95972470  0.18082106  0.89188974    -0.59700
H1199       H  0.96860691  0.17008605  0.87475775     0.44300
H1200       H  0.83640019  0.02470420  0.96902698     0.44200
C1201       C  0.87966779  0.25969173  0.90693044    -0.04800
C1202       C  0.91688061  0.26861960  0.92523293    -0.32200
C1203       C  0.93955057  0.31149663  0.94087957     0.37000
C1204       C  0.92366455  0.34532045  0.93913085    -0.05200
C1205       C  0.88515854  0.33530634  0.92144179    -0.32100
C1206       C  0.86324193  0.29289839  0.90539048     0.36900
H1207       H  0.92939172  0.24293956  0.92673689     0.17300
O1208       O  0.97619386  0.31923332  0.95840625    -0.59600
H1209       H  0.87225743  0.36064346  0.91984415     0.17300
O1210       O  0.82580349  0.28417236  0.88826645    -0.59700
H1211       H  0.79666483  0.26864414  0.90009116     0.44300
H1212       H  0.50540565  0.33270768  0.94665526     0.44200
C1213       C  0.73940120  0.11795974  0.90706808    -0.04800
C1214       C  0.73329479  0.14731436  0.92631030    -0.32200
C1215       C  0.69129189  0.12839720  0.94218306     0.37000
C1216       C  0.65538898  0.07899681  0.93945642    -0.05200
C1217       C  0.66253520  0.04938697  0.92076987    -0.32100
C1218       C  0.70412202  0.06855216  0.90461867     0.36900
H1219       H  0.76064666  0.18532813  0.92850270     0.17300
O1220       O  0.68649662  0.15799503  0.96096037    -0.59600
H1221       H  0.63551662  0.01130531  0.91844883     0.17300
O1222       O  0.70982492  0.03879243  0.88640321    -0.59700
H1223       H  0.73084340  0.02918014  0.89602569     0.44300
H1224       H  0.67616084  0.17730212  0.95001928     0.44200
C1225       C  0.87724751  0.11595108  0.84193382    -0.04800
C1226       C  0.86614840  0.06804012  0.84691643    -0.32200
C1227       C  0.88707357  0.04680545  0.83105447     0.37000
C1228       C  0.91918941  0.07334289  0.80963630    -0.05200
C1229       C  0.92862640  0.12038407  0.80384759    -0.32100
C1230       C  0.90827357  0.14188629  0.81994225     0.36900
H1231       H  0.84096238  0.04688408  0.86304738     0.17300
O1232       O  0.87525010  0.99984066  0.83630433    -0.59600
H1233       H  0.95293364  0.14103877  0.78724069     0.17300
O1234       O  0.91989847  0.18867727  0.81435363    -0.59700
H1235       H  0.94591494  0.20925396  0.82757073     0.44300
H1236       H  0.84715063  0.47941895  0.82427022     0.44200
C1237       C  0.88039403  0.26095447  0.84394466    -0.04800
C1238       C  0.85223339  0.26639558  0.82383046    -0.32200
C1239       C  0.87158478  0.30838647  0.80766010     0.37000
C1240       C  0.91972736  0.34557739  0.81156437    -0.05200
C1241       C  0.94786382  0.34013689  0.83160752    -0.32100
C1242       C  0.92879373  0.29789293  0.84752904     0.36900
H1243       H  0.81496160  0.23822226  0.82088212     0.17300
O1244       O  0.84316536  0.31296046  0.78827433    -0.59600
H1245       H  0.98529604  0.36806349  0.83428458     0.17300
O1246       O  0.95841984  0.29149238  0.86516869    -0.59700
H1247       H  0.97171505  0.31947871  0.87814702     0.44300
H1248       H  0.82403197  0.32423321  0.79866840     0.44200
C1249       C  0.73690933  0.11923814  0.84394308    -0.04800
C1250       C  0.73102464  0.08716614  0.82240477    -0.32200
C1251       C  0.68896808  0.06530369  0.80646438     0.37000
C1252       C  0.65176236  0.07513633  0.81206435    -0.05200
C1253       C  0.65768641  0.10744356  0.83347742    -0.32100
C1254       C  0.70037925  0.13045620  0.84887783     0.36900
H1255       H  0.75886428  0.07843432  0.81819986     0.17300
O1256       O  0.68427996  0.53383570  0.78567766    -0.59600
H1257       H  0.62983821  0.11618558  0.83760742     0.17300
O1258       O  0.70640200  0.16467829  0.86817680    -0.59700
H1259       H  0.72774827  0.19649144  0.85931132     0.44300
H1260       H  0.66882192  0.50131948  0.79440380     0.44200
C1261       C  0.83184559  0.66524942  0.34784760     0.46100
H1262       H  0.83103841  0.66552970  0.32493204    -0.02900
C1263       C  0.83334860  0.66462554  0.40157411     0.46200
H1264       H  0.83392477  0.66431297  0.42451170    -0.02900
C1265       C  0.85659676  0.63883062  0.35977962    -0.16600
C1266       C  0.85850729  0.71624675  0.36089869    -0.16400
C1267       C  0.78149007  0.64038675  0.36094267    -0.16700
C1268       C  0.85742861  0.63874652  0.38814031    -0.16700
C1269       C  0.85887635  0.71576967  0.38924455    -0.16300
C1270       C  0.78250572  0.63986258  0.38929098    -0.16600
C1271       C  0.66633557  0.83567841  0.15183866     0.46100
H1272       H  0.66449959  0.83518650  0.17470607    -0.02900
C1273       C  0.66784074  0.83395285  0.09817800     0.46200
H1274       H  0.66782493  0.83309982  0.07530806    -0.02900
C1275       C  0.71770523  0.85917524  0.13983704    -0.16600
C1276       C  0.63975372  0.78423800  0.13965821    -0.16400
C1277       C  0.64368447  0.86275395  0.13811937    -0.16700
C1278       C  0.71866877  0.85876019  0.11118612    -0.16700
C1279       C  0.64025094  0.78328159  0.11150202    -0.16300
C1280       C  0.64425328  0.86187569  0.10978010    -0.16600
Zn1281     Zn  0.53404022  0.96814861  0.48587983     1.49700
Zn1282     Zn  0.93487633  0.96739822  0.48655536     1.49400
Zn1283     Zn  0.00233763  0.00167012  0.04038577     1.49100
Zn1284     Zn  0.53432438  0.56882045  0.48609173     1.49500
O1285       O  0.00143083  0.00169651  0.49979053    -1.83500
O1286       O  0.98996427  0.90941945  0.46316149    -0.74100
O1287       O  0.88857938  0.94347646  0.01857965    -0.73900
O1288       O  0.54011517  0.97102349  0.05487148    -0.73400
O1289       O  0.92094203  0.90917177  0.46306791    -0.74100
O1290       O  0.55858029  0.94484423  0.01675539    -0.73700
O1291       O  0.93469917  0.96701544  0.05612783    -0.74300
O1292       O  0.55674627  0.61639376  0.01793618    -0.73700
O1293       O  0.92060341  0.51135092  0.46371576    -0.74500
O1294       O  0.53369231  0.56956597  0.05529565    -0.73800
O1295       O  0.98994196  0.58125116  0.46206273    -0.74300
O1296       O  0.59345617  0.58343762  0.46396353    -0.74200
O1297       O  0.59111529  0.51266259  0.46266533    -0.74000
C1298       C  0.94608949  0.89038989  0.45594283     0.77800
C1299       C  0.89332267  0.94628498  0.04473576     0.78300
C1300       C  0.55938610  0.94940903  0.04286841     0.77200
C1301       C  0.55370078  0.61113879  0.04402711     0.77600
C1302       C  0.94557834  0.55513509  0.45551846     0.78700
C1303       C  0.61099729  0.55736255  0.45625394     0.77800
Zn1304     Zn  0.56607323  0.53193288  0.23698132     1.49700
Zn1305     Zn  0.49862333  0.99935388  0.29077908     1.49400
Zn1306     Zn  0.96762186  0.53242457  0.23603263     1.49100
Zn1307     Zn  0.96595816  0.93152869  0.23676194     1.49500
O1308       O  0.49957902  0.99886677  0.25026067    -1.83500
O1309       O  0.61237779  0.55342344  0.26879472    -0.74100
O1310       O  0.96128722  0.53040263  0.30499751    -0.73900
O1311       O  0.51275459  0.59019065  0.21284359    -0.73400
O1312       O  0.56666844  0.53582549  0.30635363    -0.74100
O1313       O  0.58201425  0.59098863  0.21380932    -0.73700
O1314       O  0.94396822  0.55712584  0.26691459    -0.74300
O1315       O  0.91077057  0.91786538  0.21216548    -0.73700
O1316       O  0.96547709  0.93089358  0.30560624    -0.74500
O1317       O  0.90936602  0.98676351  0.21335232    -0.73800
O1318       O  0.93803734  0.88416626  0.26809252    -0.74300
O1319       O  0.50997873  0.91653540  0.21477637    -0.74200
O1320       O  0.57840336  0.98723027  0.21379792    -0.74000
C1321       C  0.60786546  0.55358500  0.29489039     0.77800
C1322       C  0.94265196  0.55239705  0.29300525     0.78300
C1323       C  0.55689995  0.60932286  0.20598647     0.77200
C1324       C  0.89177150  0.94282559  0.20546453     0.77600
C1325       C  0.94191869  0.88921770  0.29418130     0.78700
C1326       C  0.55346721  0.94263601  0.20690077     0.77800
C1327       C  0.61693714  0.73785404  0.09518691    -0.04800
C1328       C  0.64548836  0.72096652  0.08347265    -0.32200
C1329       C  0.62509028  0.67991563  0.06645151     0.37000
C1330       C  0.57521258  0.65431905  0.06176554    -0.05200
C1331       C  0.54591463  0.66886810  0.07516705    -0.32100
C1332       C  0.56660086  0.71079518  0.09185928     0.36900
H1333       H  0.68349104  0.73898963  0.08813863     0.17300
O1334       O  0.65406116  0.66477535  0.05466280    -0.59600
H1335       H  0.50716670  0.64793833  0.07252348     0.17300
O1336       O  0.53785795  0.72416536  0.10584440    -0.59700
H1337       H  0.51364042  0.72209973  0.09245617     0.44300
H1338       H  0.65274038  0.63990679  0.06740534     0.44200
C1339       C  0.76349141  0.88168003  0.09373982    -0.04800
C1340       C  0.80298149  0.92743406  0.10099959    -0.32200
C1341       C  0.84597727  0.94834083  0.08577544     0.37000
C1342       C  0.84944632  0.92473379  0.06200824    -0.05200
C1343       C  0.80950229  0.88060210  0.05385672    -0.32100
C1344       C  0.76718691  0.85864113  0.06960598     0.36900
H1345       H  0.80067775  0.94708901  0.11866133     0.17300
O1346       O  0.88394843  0.49236690  0.09395262    -0.59600
H1347       H  0.81137958  0.86231520  0.03538328     0.17300
O1348       O  0.72966328  0.81475686  0.06098903    -0.59700
H1349       H  0.74288064  0.79272545  0.05927554     0.44300
H1350       H  0.87948830  0.51700932  0.08415280     0.44200
C1351       C  0.62386204  0.88493183  0.09170852    -0.04800
C1352       C  0.63564826  0.93323047  0.09645871    -0.32200
C1353       C  0.61446892  0.95450844  0.08104850     0.37000
C1354       C  0.58260405  0.92827530  0.05945262    -0.05200
C1355       C  0.57327375  0.88127689  0.05333444    -0.32100
C1356       C  0.59297942  0.85925670  0.06950571     0.36900
H1357       H  0.66189003  0.95497618  0.11188278     0.17300
O1358       O  0.62699453  0.00175334  0.08634495    -0.59600
H1359       H  0.54937905  0.86090311  0.03644336     0.17300
O1360       O  0.58159288  0.81256696  0.06353739    -0.59700
H1361       H  0.54619392  0.79240678  0.06582588     0.44300
H1362       H  0.60632063  0.00001783  0.10201704     0.44200
C1363       C  0.57914205  0.65416857  0.18896293    -0.04800
C1364       C  0.55748896  0.68291146  0.18832235    -0.32200
C1365       C  0.57745732  0.72567749  0.17285719     0.37000
C1366       C  0.61901196  0.73992991  0.15700565    -0.05200
C1367       C  0.64091188  0.71152432  0.15748937    -0.32100
C1368       C  0.62150142  0.66906741  0.17337205     0.36900
H1369       H  0.52513881  0.67258529  0.20015543     0.17300
O1370       O  0.55523273  0.75257837  0.17281772    -0.59600
H1371       H  0.67323520  0.72239336  0.14550308     0.17300
O1372       O  0.64407718  0.64239179  0.17328064    -0.59700
H1373       H  0.62836433  0.61814574  0.15825370     0.44300
H1374       H  0.56771816  0.77367313  0.18942458     0.44200
C1375       C  0.84716548  0.91969703  0.18908831    -0.04800
C1376       C  0.80961634  0.92719973  0.19684471    -0.34600
C1377       C  0.76653815  0.90629588  0.18180561     0.37000
C1378       C  0.76100019  0.87788465  0.15809207    -0.05200
C1379       C  0.79764226  0.86772402  0.15158002    -0.32100
C1380       C  0.84061044  0.88871028  0.16670575     0.36900
H1381       H  0.81353113  0.94914222  0.21489654     0.17300
O1382       O  0.72979591  0.91288338  0.19083983    -0.59600
H1383       H  0.79340593  0.84420347  0.13430115     0.17300
O1384       O  0.87682844  0.88063739  0.15862699    -0.59700
H1385       H  0.86910913  0.84945811  0.16732962     0.44300
H1386       H  0.74445836  0.94772724  0.19589434     0.44200
C1387       C  0.62048997  0.88425029  0.15466540    -0.04800
C1388       C  0.57106770  0.85664628  0.16001873    -0.32200
C1389       C  0.54867343  0.87444625  0.17740013     0.37000
C1390       C  0.57579652  0.92140889  0.18912436    -0.05200
C1391       C  0.62526554  0.94933831  0.18307127    -0.32100
C1392       C  0.64758065  0.93120369  0.16587560     0.36900
H1393       H  0.54974757  0.82101380  0.15074527     0.17300
O1394       O  0.00055160  0.84527236  0.18307436    -0.59600
H1395       H  0.64698026  0.98555623  0.19162028     0.17300
O1396       O  0.69578312  0.95949965  0.15990560    -0.59700
H1397       H  0.70084915  0.99110645  0.15326858     0.44300
H1398       H  0.98351021  0.84727278  0.16656150     0.44200
C1399       C  0.88030079  0.61735051  0.40498077    -0.04800
C1400       C  0.85129855  0.57548911  0.42039510    -0.32200
C1401       C  0.87187184  0.55454278  0.43664533     0.37000
C1402       C  0.92255976  0.57611748  0.43810806    -0.05200
C1403       C  0.95144965  0.61868117  0.42285535    -0.32100
C1404       C  0.93063135  0.63896898  0.40620420     0.36900
H1405       H  0.81245705  0.55875334  0.41964072     0.17300
O1406       O  0.84194357  0.51315403  0.45110679    -0.59600
H1407       H  0.99034871  0.63618218  0.42364050     0.17300
O1408       O  0.95972549  0.68082479  0.39189710    -0.59700
H1409       H  0.96860668  0.67009343  0.37476334     0.44300
H1410       H  0.83639948  0.52469097  0.46902491     0.44200
C1411       C  0.87966965  0.75968679  0.40693387    -0.04800
C1412       C  0.91688355  0.76861470  0.42523559    -0.32200
C1413       C  0.93955493  0.81149225  0.44088182     0.37000
C1414       C  0.92366871  0.84531602  0.43913364    -0.05200
C1415       C  0.88516138  0.83530144  0.42144561    -0.32100
C1416       C  0.86324365  0.79289327  0.40539464     0.36900
H1417       H  0.92939481  0.74293470  0.42673894     0.17300
O1418       O  0.97620005  0.81922976  0.45840722    -0.59600
H1419       H  0.87226021  0.86063854  0.41984831     0.17300
O1420       O  0.82580465  0.78416730  0.38827113    -0.59700
H1421       H  0.79666805  0.76865072  0.40009778     0.44300
H1422       H  0.50541083  0.83270860  0.44665535     0.44200
C1423       C  0.73940128  0.61795783  0.40706794    -0.04800
C1424       C  0.73329453  0.64731377  0.42630901    -0.32200
C1425       C  0.69129032  0.62839835  0.44218049     0.37000
C1426       C  0.65538693  0.57899806  0.43945431    -0.05200
C1427       C  0.66253281  0.54938728  0.42076829    -0.32100
C1428       C  0.70412049  0.56855089  0.40461796     0.36900
H1429       H  0.76064705  0.68532732  0.42850131     0.17300
O1430       O  0.68649420  0.65799788  0.46095609    -0.59600
H1431       H  0.63551347  0.51130584  0.41844720     0.17300
O1432       O  0.70982247  0.53879025  0.38640273    -0.59700
H1433       H  0.73084542  0.52918234  0.39602395     0.44300
H1434       H  0.67616198  0.67730617  0.45001329     0.44200
C1435       C  0.87725061  0.61594923  0.34193553    -0.04800
C1436       C  0.86615363  0.56803910  0.34691889    -0.32200
C1437       C  0.88708016  0.54680532  0.33105746     0.37000
C1438       C  0.91919466  0.57334245  0.30963871    -0.05200
C1439       C  0.92862907  0.62038242  0.30384902    -0.32100
C1440       C  0.90827521  0.64188401  0.31994331     0.36900
H1441       H  0.84096816  0.54688292  0.36304999     0.17300
O1442       O  0.87525939  0.49984166  0.33630855    -0.59600
H1443       H  0.95293495  0.64103669  0.28724151     0.17300
O1444       O  0.91989722  0.68867375  0.31435340    -0.59700
H1445       H  0.94591345  0.70925263  0.32757011     0.44300
H1446       H  0.84716402  0.97941880  0.32427224     0.44200
C1447       C  0.88039525  0.76095327  0.34394803    -0.04800
C1448       C  0.85223399  0.76639360  0.32383384    -0.32200
C1449       C  0.87158440  0.80838447  0.30766350     0.37000
C1450       C  0.91972652  0.84557638  0.31156786    -0.05200
C1451       C  0.94786298  0.84013725  0.33161156    -0.32100
C1452       C  0.92879412  0.79789325  0.34753293     0.36900
H1453       H  0.81496268  0.73821934  0.32088522     0.17300
O1454       O  0.84316451  0.81295720  0.28827757    -0.59600
H1455       H  0.98529480  0.86806481  0.33428887     0.17300
O1456       O  0.95842106  0.79149395  0.36517257    -0.59700
H1457       H  0.97171561  0.81948027  0.37815085     0.44300
H1458       H  0.82403641  0.82423729  0.29867080     0.44200
C1459       C  0.73691291  0.61923735  0.34394312    -0.04800
C1460       C  0.73102913  0.58716647  0.32240433    -0.32200
C1461       C  0.68897257  0.56530374  0.30646393     0.37000
C1462       C  0.65176575  0.57513444  0.31206469    -0.05200
C1463       C  0.65768919  0.60744096  0.33347804    -0.32100
C1464       C  0.70038230  0.63045461  0.34887806     0.36900
H1465       H  0.75886937  0.57843567  0.31819909     0.17300
O1466       O  0.68428564  0.03383698  0.28567693    -0.59600
H1467       H  0.62984025  0.61618171  0.33760852     0.17300
O1468       O  0.70640450  0.66467648  0.36817707    -0.59700
H1469       H  0.72775505  0.69648979  0.35931291     0.44300
H1470       H  0.66882656  0.00132013  0.29440234     0.44200
C1471       C  0.83184206  0.66525048  0.84784572     0.46100
H1472       H  0.83103395  0.66552937  0.82493013    -0.02900
C1473       C  0.83334801  0.66462989  0.90157220     0.46200
H1474       H  0.83392548  0.66431861  0.92450980    -0.02900
C1475       C  0.85659422  0.63883280  0.85977784    -0.16600
C1476       C  0.85850439  0.71624857  0.86089574    -0.16400
C1477       C  0.78148714  0.64038826  0.86094176    -0.16700
C1478       C  0.85742770  0.63875034  0.88813849    -0.16700
C1479       C  0.85887443  0.71577337  0.88924160    -0.16300
C1480       C  0.78250441  0.63986564  0.88929010    -0.16600
C1481       C  0.66633485  0.83568194  0.65183811     0.46100
H1482       H  0.66450034  0.83519210  0.67470558    -0.02900
C1483       C  0.66783784  0.83395260  0.59817749     0.46200
H1484       H  0.66782037  0.83309809  0.57530757    -0.02900
C1485       C  0.71770372  0.85917686  0.63983567    -0.16600
C1486       C  0.63975157  0.78424081  0.63965881    -0.16400
C1487       C  0.64368429  0.86275738  0.63811842    -0.16700
C1488       C  0.71866639  0.85875981  0.61118475    -0.16700
C1489       C  0.64024785  0.78328234  0.61150263    -0.16300
C1490       C  0.64425216  0.86187723  0.60977926    -0.16600
Zn1491     Zn  0.53403821  0.96814728  0.98587957     1.49700
Zn1492     Zn  0.93487403  0.96740134  0.98655517     1.49400
Zn1493     Zn  0.00233587  0.00166663  0.54038664     1.49100
Zn1494     Zn  0.53432261  0.56882006  0.98608914     1.49500
O1495       O  0.00142930  0.00169774  0.99978956    -1.83500
O1496       O  0.98995968  0.90942208  0.96315934    -0.74100
O1497       O  0.88857883  0.94347181  0.51857837    -0.73900
O1498       O  0.54011313  0.97102228  0.55487186    -0.73400
O1499       O  0.92093748  0.90917479  0.96306650    -0.74100
O1500       O  0.55858500  0.94484980  0.51675541    -0.73700
O1501       O  0.93469676  0.96700923  0.55612718    -0.74300
O1502       O  0.55674957  0.61639210  0.51793978    -0.73700
O1503       O  0.92060112  0.51135533  0.96371622    -0.74500
O1504       O  0.53368844  0.56956238  0.55529846    -0.73800
O1505       O  0.98994234  0.58125194  0.96205809    -0.74300
O1506       O  0.59345611  0.58343608  0.96396326    -0.74200
O1507       O  0.59111564  0.51266112  0.96266662    -0.74000
C1508       C  0.94608503  0.89039341  0.95594048     0.77800
C1509       C  0.89332079  0.94627918  0.54473451     0.78300
C1510       C  0.55938762  0.94941164  0.54286846     0.77200
C1511       C  0.55370045  0.61113589  0.54403061     0.77600
C1512       C  0.94557742  0.55513773  0.95551624     0.78700
C1513       C  0.61099814  0.55736112  0.95625510     0.77800
Zn1514     Zn  0.56607107  0.53193567  0.73698037     1.49700
Zn1515     Zn  0.49861991  0.99935418  0.79077736     1.49400
Zn1516     Zn  0.96761962  0.53242655  0.73603067     1.49100
Zn1517     Zn  0.96595745  0.93153192  0.73675937     1.49500
O1518       O  0.49957682  0.99886827  0.75025900    -1.83500
O1519       O  0.61237492  0.55342569  0.76879410    -0.74100
O1520       O  0.96128250  0.53040340  0.80499530    -0.73900
O1521       O  0.51275139  0.59019379  0.71284363    -0.73400
O1522       O  0.56666467  0.53582782  0.80635263    -0.74100
O1523       O  0.58201111  0.59099179  0.71380936    -0.73700
O1524       O  0.94396318  0.55712592  0.76691223    -0.74300
O1525       O  0.91076973  0.91786774  0.71216289    -0.73700
O1526       O  0.96547571  0.93089475  0.80560377    -0.74500
O1527       O  0.90936554  0.98676603  0.71334927    -0.73800
O1528       O  0.93803820  0.88416882  0.76808936    -0.74300
O1529       O  0.50997927  0.91653986  0.71477434    -0.74200
O1530       O  0.57840345  0.98723507  0.71379610    -0.74000
C1531       C  0.60786198  0.55358730  0.79488973     0.77800
C1532       C  0.94264664  0.55239714  0.79300290     0.78300
C1533       C  0.55689691  0.60932632  0.70598690     0.77200
C1534       C  0.89177103  0.94282809  0.70546154     0.77600
C1535       C  0.94191897  0.88921925  0.79417818     0.78700
C1536       C  0.55346768  0.94264082  0.70689889     0.77800
C1537       C  0.61693479  0.73785355  0.59518860    -0.04800
C1538       C  0.64548729  0.72096834  0.58347346    -0.32200
C1539       C  0.62508977  0.67991599  0.56645344     0.37000
C1540       C  0.57521141  0.65431561  0.56176957    -0.05200
C1541       C  0.54591250  0.66886229  0.57517226    -0.32100
C1542       C  0.56659818  0.71079089  0.59186320     0.36900
H1543       H  0.68349073  0.73899452  0.58813786     0.17300
O1544       O  0.65406177  0.66477781  0.55466402    -0.59600
H1545       H  0.50716438  0.64793012  0.57253018     0.17300
O1546       O  0.53785448  0.72415943  0.60584878    -0.59700
H1547       H  0.51363932  0.72209733  0.59245994     0.44300
H1548       H  0.65274540  0.63991219  0.56740731     0.44200
C1549       C  0.76348870  0.88167799  0.59373790    -0.04800
C1550       C  0.80298095  0.92743007  0.60099838    -0.32200
C1551       C  0.84597679  0.94833501  0.58577453     0.37000
C1552       C  0.84944389  0.92472879  0.56200647    -0.05200
C1553       C  0.80949757  0.88059980  0.55385369    -0.32100
C1554       C  0.76718185  0.85864013  0.56960283     0.36900
H1555       H  0.80067896  0.94708526  0.61866051     0.17300
O1556       O  0.88395049  0.49235643  0.59395330    -0.59600
H1557       H  0.81137324  0.86231396  0.53537935     0.17300
O1558       O  0.72965553  0.81475878  0.56098429    -0.59700
H1559       H  0.74287014  0.79272546  0.55926724     0.44300
H1560       H  0.87949728  0.51700156  0.58415148     0.44200
C1561       C  0.62386216  0.88493382  0.59170754    -0.04800
C1562       C  0.63565185  0.93323375  0.59645669    -0.32200
C1563       C  0.61447270  0.95451203  0.58104684     0.37000
C1564       C  0.58260527  0.92827790  0.55945222    -0.05200
C1565       C  0.57327197  0.88127829  0.55333469    -0.32100
C1566       C  0.59297713  0.85925776  0.56950584     0.36900
H1567       H  0.66189584  0.95497986  0.61187962     0.17300
O1568       O  0.62700065  0.00175781  0.58634247    -0.59600
H1569       H  0.54937531  0.86090401  0.53644441     0.17300
O1570       O  0.58158727  0.81256665  0.56353871    -0.59700
H1571       H  0.54618925  0.79240775  0.56583215     0.44300
H1572       H  0.60631579  0.00002258  0.60200838     0.44200
C1573       C  0.57913954  0.65417259  0.68896413    -0.04800
C1574       C  0.55749086  0.68291970  0.68832691    -0.32200
C1575       C  0.57746000  0.72568596  0.67286192     0.37000
C1576       C  0.61901046  0.73993397  0.65700719    -0.05200
C1577       C  0.64090621  0.71152445  0.65748801    -0.32100
C1578       C  0.62149521  0.66906746  0.67337046     0.36900
H1579       H  0.52514369  0.67259650  0.70016235     0.17300
O1580       O  0.55523967  0.75259091  0.67282543    -0.59600
H1581       H  0.67322649  0.72239024  0.64549934     0.17300
O1582       O  0.64406630  0.64238734  0.67327572    -0.59700
H1583       H  0.62834702  0.61814041  0.65824987     0.44300
H1584       H  0.56773146  0.77368709  0.68943145     0.44200
C1585       C  0.84716486  0.91969953  0.68908543    -0.04800
C1586       C  0.80961860  0.92720802  0.69683997    -0.34600
C1587       C  0.76653975  0.90630348  0.68180158     0.37000
C1588       C  0.76099878  0.87788670  0.65809028    -0.05200
C1589       C  0.79763779  0.86772092  0.65157992    -0.32100
C1590       C  0.84060620  0.88870670  0.66670542     0.36900
H1591       H  0.81353584  0.94915493  0.71489011     0.17300
O1592       O  0.72979932  0.91289489  0.69083462    -0.59600
H1593       H  0.79339872  0.84419652  0.63430254     0.17300
O1594       O  0.87682071  0.88062691  0.65862890    -0.59700
H1595       H  0.86909471  0.84944530  0.66733113     0.44300
H1596       H  0.74446371  0.94773909  0.69588875     0.44200
C1597       C  0.62049014  0.88425455  0.65466398    -0.04800
C1598       C  0.57106841  0.85664971  0.66001853    -0.32200
C1599       C  0.54867438  0.87444976  0.67739998     0.37000
C1600       C  0.57579707  0.92141374  0.68912264    -0.05200
C1601       C  0.62526555  0.94934411  0.68306833    -0.32100
C1602       C  0.64758051  0.93120910  0.66587284     0.36900
H1603       H  0.54974851  0.82101629  0.65074609     0.17300
O1604       O  0.00055305  0.84527494  0.68307525    -0.59600
H1605       H  0.64697989  0.98556291  0.69161626     0.17300
O1606       O  0.69578255  0.95950553  0.65990188    -0.59700
H1607       H  0.70084821  0.99111278  0.65326587     0.44300
H1608       H  0.98350933  0.84726432  0.66656038     0.44200
C1609       C  0.88029997  0.61735415  0.90497884    -0.04800
C1610       C  0.85129794  0.57549546  0.92039525    -0.32200
C1611       C  0.87187109  0.55454863  0.93664525     0.37000
C1612       C  0.92255884  0.57612025  0.93810574    -0.05200
C1613       C  0.95144863  0.61868127  0.92285088    -0.32100
C1614       C  0.93063038  0.63896940  0.90619987     0.36900
H1615       H  0.81245656  0.55876216  0.91964276     0.17300
O1616       O  0.84194286  0.51316246  0.95110872    -0.59600
H1617       H  0.99034765  0.63618001  0.92363429     0.17300
O1618       O  0.95972459  0.68082272  0.89189072    -0.59700
H1619       H  0.96860683  0.67008861  0.87475841     0.44300
H1620       H  0.83639957  0.52470254  0.96902598     0.44200
C1621       C  0.87966788  0.75969170  0.90693005    -0.04800
C1622       C  0.91688036  0.76861924  0.92523272    -0.32200
C1623       C  0.93955041  0.81149627  0.94087937     0.37000
C1624       C  0.92366477  0.84532042  0.93913045    -0.05200
C1625       C  0.88515914  0.83530677  0.92144115    -0.32100
C1626       C  0.86324246  0.79289874  0.90538986     0.36900
H1627       H  0.92939115  0.74293894  0.92673682     0.17300
O1628       O  0.97619342  0.81923271  0.95840621    -0.59600
H1629       H  0.87225837  0.86064412  0.91984337     0.17300
O1630       O  0.82580433  0.78417295  0.88826564    -0.59700
H1631       H  0.79666556  0.76864534  0.90009029     0.44300
H1632       H  0.50540607  0.83270965  0.94665507     0.44200
C1633       C  0.73940108  0.61795973  0.90706801    -0.04800
C1634       C  0.73329467  0.64731440  0.92631019    -0.32200
C1635       C  0.69129171  0.62839730  0.94218295     0.37000
C1636       C  0.65538884  0.57899696  0.93945639    -0.05200
C1637       C  0.66253519  0.54938711  0.92076993    -0.32100
C1638       C  0.70412198  0.56855219  0.90461872     0.36900
H1639       H  0.76064660  0.68532818  0.92850253     0.17300
O1640       O  0.68649637  0.65799523  0.96096014    -0.59600
H1641       H  0.63551668  0.51130537  0.91844899     0.17300
O1642       O  0.70982507  0.53879225  0.88640353    -0.59700
H1643       H  0.73084317  0.52917983  0.89602636     0.44300
H1644       H  0.67616150  0.67730288  0.95001887     0.44200
C1645       C  0.87724742  0.61595083  0.84193376    -0.04800
C1646       C  0.86614780  0.56803963  0.84691618    -0.32200
C1647       C  0.88707299  0.54680499  0.83105421     0.37000
C1648       C  0.91918933  0.57334270  0.80963623    -0.05200
C1649       C  0.92862683  0.62038412  0.80384771    -0.32100
C1650       C  0.90827393  0.64188629  0.81994237     0.36900
H1651       H  0.84096138  0.54688346  0.86304693     0.17300
O1652       O  0.87524913  0.49984001  0.83630388    -0.59600
H1653       H  0.95293432  0.64103892  0.78724093     0.17300
O1654       O  0.91989879  0.68867729  0.81435379    -0.59700
H1655       H  0.94591518  0.70925398  0.82757091     0.44300
H1656       H  0.84715154  0.97941936  0.82427075     0.44200
C1657       C  0.88039384  0.76095403  0.84394418    -0.04800
C1658       C  0.85223351  0.76639471  0.82382959    -0.32200
C1659       C  0.87158486  0.80838564  0.80765923     0.37000
C1660       C  0.91972703  0.84557708  0.81156398    -0.05200
C1661       C  0.94786325  0.84013685  0.83160739    -0.32100
C1662       C  0.92879329  0.79789282  0.84752882     0.36900
H1663       H  0.81496195  0.73822101  0.82088093     0.17300
O1664       O  0.84316584  0.81295908  0.78827296    -0.59600
H1665       H  0.98529530  0.86806377  0.83428471     0.17300
O1666       O  0.95841935  0.79149260  0.86516870    -0.59700
H1667       H  0.97171463  0.81947920  0.87814683     0.44300
H1668       H  0.82402997  0.82422912  0.79866679     0.44200
C1669       C  0.73690900  0.61923770  0.84394298    -0.04800
C1670       C  0.73102435  0.58716584  0.82240456    -0.32200
C1671       C  0.68896772  0.56530349  0.80646419     0.37000
C1672       C  0.65176196  0.57513602  0.81206433    -0.05200
C1673       C  0.65768608  0.60744307  0.83347750    -0.32100
C1674       C  0.70037890  0.63045568  0.84887786     0.36900
H1675       H  0.75886399  0.57843413  0.81819953     0.17300
O1676       O  0.68428040  0.03383573  0.78567797    -0.59600
H1677       H  0.62983783  0.61618500  0.83760764     0.17300
O1678       O  0.70640160  0.66467765  0.86817692    -0.59700
H1679       H  0.72774792  0.69649086  0.85931152     0.44300
H1680       H  0.66882236  0.00131960  0.79440421     0.44200
loop_ 
_geom_bond_atom_site_label_1 
_geom_bond_atom_site_label_2 
_geom_bond_distance 
_geom_bond_site_symmetry_2 
_ccdc_geom_bond_type 
C1            H2   1.111       .  S
C1            C7   1.536       .  S
C1            C6   1.537       .  S
C1            C5   1.539       .  S
C3            H4   1.112       .  S
C3            C9   1.531       .  S
C3            C8   1.532       .  S
C3           C10   1.532       .  S
C5            C8   1.374       .  D
C5          C175   1.485       .  S
C6            C9   1.374       .  D
C6          C187   1.483       .  S
C7           C10   1.374       .  D
C7          C199   1.487       .  S
C8          C139   1.481       .  S
C9          C151   1.478       .  S
C10         C163   1.475       .  S
C11          H12   1.109       .  S
C11          C17   1.539       .  S
C11          C16   1.531       .  S
C11          C15   1.543       .  S
C13          H14   1.108       .  S
C13          C19   1.541       .  S
C13          C18   1.546       .  S
C13          C20   1.538       .  S
C15          C18   1.389       .  D
C15         C118   1.496       .  S
C16          C19   1.365       .  D
C16         C106   1.485       .  S
C17          C20   1.373       .  D
C17         C127   1.477       .  S
C18          C79   1.505       .  S
C19          C67   1.476       .  S
C20          C91   1.496       .  S
Zn21        O865   1.958       .  S
Zn21        O866   2.007   1_455  S
Zn21        O240   2.007       .  S
Zn21        O457   2.006       .  S
Zn22         O25   1.955       .  S
Zn22         O29   2.021       .  S
Zn22        O237   2.015       .  S
Zn22        O453   2.019       .  S
Zn23        O235   1.967   1_554  S
Zn23         O31   2.027       .  S
Zn23        O868   2.036       .  S
Zn23       O1294   2.001       .  S
Zn24       O1285   1.966       .  S
Zn24         O36   2.022       .  S
Zn24        O242   2.019       .  S
Zn24        O875   2.035   1_455  S
O25        Zn861   1.958       .  S
O25        Zn233   1.967       .  S
O25       Zn1284   1.966       .  S
O26        Zn861   2.007       .  S
O26          C38   1.272       .  A
O27        Zn232   2.015   1_554  S
O27          C39   1.274       .  A
O28        Zn863   2.036       .  S
O28          C40   1.276       .  A
O29          C38   1.274       .  A
O30        Zn231   2.007   1_554  S
O30          C40   1.272       .  A
O31          C39   1.274       .  A
O32        Zn234   2.019   1_554  S
O32          C41   1.273       .  A
O33        Zn442   2.019   1_545  S
O33          C42   1.274       .  A
O34       Zn1283   2.001       .  S
O34          C41   1.270       .  A
O35        Zn864   2.035       .  S
O35          C42   1.276       .  A
O36          C43   1.274       .  A
O37        Zn441   2.006   1_545  S
O37          C43   1.273       .  A
C38         C154   1.480       .  S
C39          C82   1.478       .  S
C40          C94   1.476       .  S
C41          C70   1.463       .  S
C42         C142   1.491       .  S
C43         C166   1.477       .  S
Zn44        O468   1.955   1_445  S
Zn44         O49   2.008       .  S
Zn44         O53   2.029       .  S
Zn44        O480   2.002   1_545  S
Zn45         O48   1.963       .  S
Zn45       O1310   2.024       .  S
Zn45        O472   2.034   1_655  S
Zn45        O896   2.020       .  S
Zn46       O1308   1.952   1_545  S
Zn46         O54   2.008       .  S
Zn46        O891   2.018       .  S
Zn46        O477   2.018   1_545  S
Zn47        O888   1.962       .  S
Zn47         O55   1.997       .  S
Zn47         O58   2.010       .  S
Zn47        O899   2.012       .  S
O48        Zn464   1.955   1_655  S
O48       Zn1306   1.952       .  S
O48        Zn887   1.962       .  S
O49          C61   1.273       .  A
O50       Zn1305   2.024   1_545  S
O50          C62   1.274       .  A
O51        Zn886   2.018   1_455  S
O51          C63   1.274       .  A
O52        Zn465   2.034   1_445  S
O52          C61   1.276       .  A
O53          C63   1.274       .  A
O54          C62   1.272       .  A
O55          C64   1.270       .  A
O56        Zn885   2.020       .  S
O56          C65   1.274       .  A
O57        Zn466   2.018       .  S
O57          C64   1.274       .  A
O58          C65   1.272       .  A
O59        Zn887   2.012   1_455  S
O59          C66   1.272       .  A
O60        Zn464   2.002       .  S
O60          C66   1.273       .  A
C61         C202   1.476       .  S
C62         C178   1.473       .  S
C63         C103   1.488       .  S
C64         C115   1.470       .  S
C65         C190   1.470       .  S
C66         C130   1.484       .  S
C67          C68   1.398       .  A
C67          C72   1.407       .  A
C68          C69   1.395       .  A
C68          H73   1.080       .  S
C69          C70   1.403       .  A
C69          O74   1.372       .  S
C70          C71   1.402       .  A
C71          C72   1.406       .  A
C71          H75   1.084       .  S
C72          O76   1.376       .  S
O74          H78   0.992       .  S
O76          H77   0.992       .  S
C79          C80   1.410       .  A
C79          C84   1.414       .  A
C80          C81   1.404       .  A
C80          H85   1.083       .  S
C81          C82   1.408       .  A
C81         O506   1.371       .  S
C82          C83   1.398       .  A
C83          C84   1.401       .  A
C83          H87   1.084       .  S
C84          O88   1.370       .  S
O86         C501   1.371       .  S
O86          H90   0.992   1_565  S
O88          H89   0.992       .  S
C91          C92   1.406       .  A
C91          C96   1.410       .  A
C92          C93   1.400       .  A
C92          H97   1.076       .  S
C93          C94   1.405       .  A
C93          O98   1.372       .  S
C94          C95   1.402       .  A
C95          C96   1.404       .  A
C95          H99   1.084       .  S
C96         O100   1.371       .  S
O98         H102   0.992       .  S
O100        H101   0.991       .  S
C103        C104   1.406       .  A
C103        C108   1.414       .  A
C104        C105   1.399       .  A
C104        H109   1.083       .  S
C105        C106   1.403       .  A
C105        O110   1.368       .  S
C106        C107   1.403       .  A
C107        C108   1.403       .  A
C107        H111   1.084       .  S
C108        O112   1.371       .  S
O110        H114   0.992       .  S
O112        H113   0.992       .  S
C115        C116   1.397       .  A
C115        C120   1.406       .  A
C116        C117   1.401       .  A
C116        H121   1.084       .  S
C117        C118   1.414       .  A
C117        O122   1.373       .  S
C118        C119   1.408       .  A
C119        C120   1.400       .  A
C119        H123   1.083       .  S
C120        O124   1.372       .  S
O122        H126   0.992       .  S
O124        H125   0.992       .  S
C127        C128   1.398       .  A
C127        C132   1.404       .  A
C128        C129   1.400       .  A
C128        H133   1.082       .  S
C129        C130   1.414       .  A
C129        O974   1.372       .  S
C130        C131   1.407       .  A
C131        C132   1.400       .  A
C131        H135   1.083       .  S
C132        O136   1.374       .  S
O134        C969   1.372       .  S
O134        H138   0.992       .  S
O136        H137   0.992       .  S
C139        C140   1.399       .  A
C139        C144   1.405       .  A
C140        C141   1.401       .  A
C140        H145   1.083       .  S
C141        C142   1.416       .  A
C141        O146   1.372       .  S
C142        C143   1.408       .  A
C143        C144   1.403       .  A
C143        H147   1.083       .  S
C144        O148   1.372       .  S
O146        H150   0.992       .  S
O148        H149   0.992       .  S
C151        C152   1.400       .  A
C151        C156   1.406       .  A
C152        C153   1.400       .  A
C152        H157   1.084       .  S
C153        C154   1.413       .  A
C153        O158   1.372       .  S
C154        C155   1.405       .  A
C155        C156   1.399       .  A
C155        H159   1.083       .  S
C156        O160   1.372       .  S
O158       H1002   0.992       .  S
O160        H161   0.992       .  S
H162        O998   0.992   1_455  S
C163        C164   1.401       .  A
C163        C168   1.405       .  A
C164        C165   1.399       .  A
C164        H169   1.084       .  S
C165        C166   1.411       .  A
C165        O170   1.372       .  S
C166        C167   1.406       .  A
C167        C168   1.396       .  A
C167        H171   1.083       .  S
C168        O172   1.372       .  S
O170        H174   0.992       .  S
O172        H173   0.992       .  S
C175        C176   1.405       .  A
C175        C180   1.409       .  A
C176        C177   1.400       .  A
C176        H181   1.083       .  S
C177        C178   1.407       .  A
C177        O182   1.372   1_545  S
C178        C179   1.402       .  A
C179        C180   1.399       .  A
C179        H183   1.084       .  S
C180        O184   1.371       .  S
O182        H606   0.992       .  S
O184        H185   0.992       .  S
H186        O602   0.992       .  S
C187        C188   1.403       .  A
C187        C192   1.409       .  A
C188        C189   1.400       .  A
C188        H193   1.084       .  S
C189        C190   1.408       .  A
C189        O194   1.372       .  S
C190        C191   1.400       .  A
C191        C192   1.400       .  A
C191        H195   1.084       .  S
C192        O196   1.373       .  S
O194        H198   0.992       .  S
O196        H197   0.992       .  S
C199        C200   1.402       .  A
C199        C204   1.412       .  A
C200        C201   1.400       .  A
C200        H205   1.084       .  S
C201        C202   1.409       .  A
C201        O626   1.372       .  S
C202        C203   1.402       .  A
C203        C204   1.401       .  A
C203        H207   1.084       .  S
C204        O208   1.371       .  S
O206        C621   1.372       .  S
O206        H210   0.992       .  S
O208        H209   0.992       .  S
C211        H212   1.111       .  S
C211        C217   1.536       .  S
C211        C216   1.537       .  S
C211        C215   1.539       .  S
C213        H214   1.112       .  S
C213        C219   1.531       .  S
C213        C218   1.532       .  S
C213        C220   1.532       .  S
C215        C218   1.374       .  D
C215        C385   1.485       .  S
C216        C219   1.374       .  D
C216        C397   1.483       .  S
C217        C220   1.374       .  D
C217        C409   1.487       .  S
C218        C349   1.481       .  S
C219        C361   1.478       .  S
C220        C373   1.475       .  S
C221        H222   1.109       .  S
C221        C227   1.539       .  S
C221        C226   1.531       .  S
C221        C225   1.543       .  S
C223        H224   1.108       .  S
C223        C229   1.541       .  S
C223        C228   1.546       .  S
C223        C230   1.538       .  S
C225        C228   1.389       .  D
C225        C328   1.496       .  S
C226        C229   1.365       .  D
C226        C316   1.485       .  S
C227        C230   1.373       .  D
C227        C337   1.477       .  S
C228        C289   1.505       .  S
C229        C277   1.476       .  S
C230        C301   1.496       .  S
Zn231      O1075   1.958       .  S
Zn231      O1076   2.007   1_455  S
Zn231       O667   2.006       .  S
Zn232       O235   1.955       .  S
Zn232       O239   2.021       .  S
Zn232       O663   2.019       .  S
Zn233      O1078   2.036       .  S
Zn233       O241   2.027       .  S
Zn233      O1504   2.001       .  S
Zn234      O1495   1.966       .  S
Zn234      O1085   2.035   1_455  S
Zn234       O246   2.022       .  S
O235      Zn1071   1.958       .  S
O235      Zn1494   1.966       .  S
O236      Zn1071   2.007       .  S
O236        C248   1.272       .  A
O237        C249   1.274       .  A
O238      Zn1073   2.036       .  S
O238        C250   1.276       .  A
O239        C248   1.274       .  A
O240        C250   1.272       .  A
O241        C249   1.274       .  A
O242        C251   1.273       .  A
O243       Zn652   2.019   1_545  S
O243        C252   1.274       .  A
O244      Zn1493   2.001       .  S
O244        C251   1.270       .  A
O245      Zn1074   2.035       .  S
O245        C252   1.276       .  A
O246        C253   1.274       .  A
O247       Zn651   2.006   1_545  S
O247        C253   1.273       .  A
C248        C364   1.480       .  S
C249        C292   1.478       .  S
C250        C304   1.476       .  S
C251        C280   1.463       .  S
C252        C352   1.491       .  S
C253        C376   1.477       .  S
Zn254       O678   1.955   1_445  S
Zn254       O259   2.008       .  S
Zn254       O263   2.029       .  S
Zn254       O690   2.002   1_545  S
Zn255       O258   1.963       .  S
Zn255      O1520   2.024       .  S
Zn255       O682   2.034   1_655  S
Zn255      O1106   2.020       .  S
Zn256      O1518   1.952   1_545  S
Zn256      O1101   2.018       .  S
Zn256       O264   2.008       .  S
Zn256       O687   2.018   1_545  S
Zn257      O1098   1.962       .  S
Zn257       O265   1.997       .  S
Zn257       O268   2.010       .  S
Zn257      O1109   2.012       .  S
O258       Zn674   1.955   1_655  S
O258      Zn1516   1.952       .  S
O258      Zn1097   1.962       .  S
O259        C271   1.273       .  A
O260      Zn1515   2.024   1_545  S
O260        C272   1.274       .  A
O261      Zn1096   2.018   1_455  S
O261        C273   1.274       .  A
O262       Zn675   2.034   1_445  S
O262        C271   1.276       .  A
O263        C273   1.274       .  A
O264        C272   1.272       .  A
O265        C274   1.270       .  A
O266      Zn1095   2.020       .  S
O266        C275   1.274       .  A
O267       Zn676   2.018       .  S
O267        C274   1.274       .  A
O268        C275   1.272       .  A
O269      Zn1097   2.012   1_455  S
O269        C276   1.272       .  A
O270       Zn674   2.002       .  S
O270        C276   1.273       .  A
C271        C412   1.476       .  S
C272        C388   1.473       .  S
C273        C313   1.488       .  S
C274        C325   1.470       .  S
C275        C400   1.470       .  S
C276        C340   1.484       .  S
C277        C278   1.398       .  A
C277        C282   1.407       .  A
C278        C279   1.395       .  A
C278        H283   1.080       .  S
C279        C280   1.403       .  A
C279        O284   1.372       .  S
C280        C281   1.402       .  A
C281        C282   1.406       .  A
C281        H285   1.084       .  S
C282        O286   1.376       .  S
O284        H288   0.992       .  S
O286        H287   0.992       .  S
C289        C290   1.410       .  A
C289        C294   1.414       .  A
C290        C291   1.404       .  A
C290        H295   1.083       .  S
C291        C292   1.408       .  A
C291        O716   1.371       .  S
C292        C293   1.398       .  A
C293        C294   1.401       .  A
C293        H297   1.084       .  S
C294        O298   1.370       .  S
O296        C711   1.371       .  S
O296        H300   0.992   1_565  S
O298        H299   0.992       .  S
C301        C302   1.406       .  A
C301        C306   1.410       .  A
C302        C303   1.400       .  A
C302        H307   1.076       .  S
C303        C304   1.405       .  A
C303        O308   1.372       .  S
C304        C305   1.402       .  A
C305        C306   1.404       .  A
C305        H309   1.084       .  S
C306        O310   1.371       .  S
O308        H312   0.992       .  S
O310        H311   0.991       .  S
C313        C314   1.406       .  A
C313        C318   1.414       .  A
C314        C315   1.399       .  A
C314        H319   1.083       .  S
C315        C316   1.403       .  A
C315        O320   1.368       .  S
C316        C317   1.403       .  A
C317        C318   1.403       .  A
C317        H321   1.084       .  S
C318        O322   1.371       .  S
O320        H324   0.992       .  S
O322        H323   0.992       .  S
C325        C326   1.397       .  A
C325        C330   1.406       .  A
C326        C327   1.401       .  A
C326        H331   1.084       .  S
C327        C328   1.414       .  A
C327        O332   1.373       .  S
C328        C329   1.408       .  A
C329        C330   1.400       .  A
C329        H333   1.083       .  S
C330        O334   1.372       .  S
O332        H336   0.992       .  S
O334        H335   0.992       .  S
C337        C338   1.398       .  A
C337        C342   1.404       .  A
C338        C339   1.400       .  A
C338        H343   1.082       .  S
C339        C340   1.414       .  A
C339       O1184   1.372       .  S
C340        C341   1.407       .  A
C341        C342   1.400       .  A
C341        H345   1.083       .  S
C342        O346   1.374       .  S
O344       C1179   1.372       .  S
O344        H348   0.992       .  S
O346        H347   0.992       .  S
C349        C350   1.399       .  A
C349        C354   1.405       .  A
C350        C351   1.401       .  A
C350        H355   1.083       .  S
C351        C352   1.416       .  A
C351        O356   1.372       .  S
C352        C353   1.408       .  A
C353        C354   1.403       .  A
C353        H357   1.083       .  S
C354        O358   1.372       .  S
O356        H360   0.992       .  S
O358        H359   0.992       .  S
C361        C362   1.400       .  A
C361        C366   1.406       .  A
C362        C363   1.400       .  A
C362        H367   1.084       .  S
C363        C364   1.413       .  A
C363        O368   1.372       .  S
C364        C365   1.405       .  A
C365        C366   1.399       .  A
C365        H369   1.083       .  S
C366        O370   1.372       .  S
O368       H1212   0.992       .  S
O370        H371   0.992       .  S
H372       O1208   0.992   1_455  S
C373        C374   1.401       .  A
C373        C378   1.405       .  A
C374        C375   1.399       .  A
C374        H379   1.084       .  S
C375        C376   1.411       .  A
C375        O380   1.372       .  S
C376        C377   1.406       .  A
C377        C378   1.396       .  A
C377        H381   1.083       .  S
C378        O382   1.372       .  S
O380        H384   0.992       .  S
O382        H383   0.992       .  S
C385        C386   1.405       .  A
C385        C390   1.409       .  A
C386        C387   1.400       .  A
C386        H391   1.083       .  S
C387        C388   1.407       .  A
C387        O392   1.372   1_545  S
C388        C389   1.402       .  A
C389        C390   1.399       .  A
C389        H393   1.084       .  S
C390        O394   1.371       .  S
O392        H816   0.992       .  S
O394        H395   0.992       .  S
H396        O812   0.992       .  S
C397        C398   1.403       .  A
C397        C402   1.409       .  A
C398        C399   1.400       .  A
C398        H403   1.084       .  S
C399        C400   1.408       .  A
C399        O404   1.372       .  S
C400        C401   1.400       .  A
C401        C402   1.400       .  A
C401        H405   1.084       .  S
C402        O406   1.373       .  S
O404        H408   0.992       .  S
O406        H407   0.992       .  S
C409        C410   1.402       .  A
C409        C414   1.412       .  A
C410        C411   1.400       .  A
C410        H415   1.084       .  S
C411        C412   1.409       .  A
C411        O836   1.372       .  S
C412        C413   1.402       .  A
C413        C414   1.401       .  A
C413        H417   1.084       .  S
C414        O418   1.371       .  S
O416        C831   1.372       .  S
O416        H420   0.992       .  S
O418        H419   0.992       .  S
C421        H422   1.111       .  S
C421        C427   1.536       .  S
C421        C426   1.537       .  S
C421        C425   1.539       .  S
C423        H424   1.112       .  S
C423        C429   1.531       .  S
C423        C428   1.532       .  S
C423        C430   1.532       .  S
C425        C428   1.374       .  D
C425        C595   1.485       .  S
C426        C429   1.374       .  D
C426        C607   1.483       .  S
C427        C430   1.374       .  D
C427        C619   1.487       .  S
C428        C559   1.481       .  S
C429        C571   1.478       .  S
C430        C583   1.475       .  S
C431        H432   1.109       .  S
C431        C437   1.539       .  S
C431        C436   1.531       .  S
C431        C435   1.543       .  S
C433        H434   1.108       .  S
C433        C439   1.541       .  S
C433        C438   1.546       .  S
C433        C440   1.538       .  S
C435        C438   1.389       .  D
C435        C538   1.496       .  S
C436        C439   1.365       .  D
C436        C526   1.485       .  S
C437        C440   1.373       .  D
C437        C547   1.477       .  S
C438        C499   1.505       .  S
C439        C487   1.476       .  S
C440        C511   1.496       .  S
Zn441      O1285   1.958   1_565  S
Zn441      O1286   2.007   1_455  S
Zn441       O660   2.007       .  S
Zn442       O445   1.955   1_565  S
Zn442       O657   2.015       .  S
Zn442       O449   2.021       .  S
Zn443       O655   1.967   1_554  S
Zn443      O1288   2.036   1_545  S
Zn443       O451   2.027   1_545  S
Zn443       O874   2.001       .  S
Zn444       O865   1.966       .  S
Zn444       O662   2.019       .  S
Zn444      O1295   2.035   1_455  S
Zn444       O456   2.022       .  S
O445      Zn1281   1.958   1_545  S
O445       Zn653   1.967       .  S
O445       Zn864   1.966       .  S
O446      Zn1281   2.007       .  S
O446        C458   1.272       .  A
O447       Zn652   2.015   1_554  S
O447        C459   1.274       .  A
O448      Zn1283   2.036   1_565  S
O448        C460   1.276       .  A
O449        C458   1.274       .  A
O450       Zn651   2.007   1_554  S
O450        C460   1.272       .  A
O451        C459   1.274       .  A
O452       Zn654   2.019   1_554  S
O452        C461   1.273       .  A
O453        C462   1.274       .  A
O454       Zn863   2.001       .  S
O454        C461   1.270       .  A
O455      Zn1284   2.035       .  S
O455        C462   1.276       .  A
O456        C463   1.274       .  A
O457        C463   1.273       .  A
C458        C574   1.480       .  S
C459        C502   1.478       .  S
C460        C514   1.476       .  S
C461        C490   1.463       .  S
C462        C562   1.491       .  S
C463        C586   1.477       .  S
Zn464       O469   2.008       .  S
Zn464       O473   2.029       .  S
Zn465       O468   1.963       .  S
Zn465       O890   2.024   1_565  S
Zn465      O1316   2.020       .  S
Zn466       O888   1.952       .  S
Zn466      O1311   2.018       .  S
Zn466       O474   2.008       .  S
Zn467      O1308   1.962       .  S
Zn467       O475   1.997       .  S
Zn467       O478   2.010       .  S
Zn467      O1319   2.012       .  S
O468       Zn886   1.952   1_565  S
O468      Zn1307   1.962       .  S
O469        C481   1.273       .  A
O470       Zn885   2.024       .  S
O470        C482   1.274       .  A
O471      Zn1306   2.018   1_455  S
O471        C483   1.274       .  A
O472        C481   1.276       .  A
O473        C483   1.274       .  A
O474        C482   1.272       .  A
O475        C484   1.270       .  A
O476      Zn1305   2.020       .  S
O476        C485   1.274       .  A
O477        C484   1.274       .  A
O478        C485   1.272       .  A
O479      Zn1307   2.012   1_455  S
O479        C486   1.272       .  A
O480        C486   1.273       .  A
C481        C622   1.476       .  S
C482        C598   1.473       .  S
C483        C523   1.488       .  S
C484        C535   1.470       .  S
C485        C610   1.470       .  S
C486        C550   1.484       .  S
C487        C488   1.398       .  A
C487        C492   1.407       .  A
C488        C489   1.395       .  A
C488        H493   1.080       .  S
C489        C490   1.403       .  A
C489        O494   1.372       .  S
C490        C491   1.402       .  A
C491        C492   1.406       .  A
C491        H495   1.084       .  S
C492        O496   1.376       .  S
O494        H498   0.992       .  S
O496        H497   0.992       .  S
C499        C500   1.410       .  A
C499        C504   1.414       .  A
C500        C501   1.404       .  A
C500        H505   1.083       .  S
C501        C502   1.408       .  A
C502        C503   1.398       .  A
C503        C504   1.401       .  A
C503        H507   1.084       .  S
C504        O508   1.370       .  S
O506        H510   0.992       .  S
O508        H509   0.992       .  S
C511        C512   1.406       .  A
C511        C516   1.410       .  A
C512        C513   1.400       .  A
C512        H517   1.076       .  S
C513        C514   1.405       .  A
C513        O518   1.372   1_565  S
C514        C515   1.402       .  A
C515        C516   1.404       .  A
C515        H519   1.084       .  S
C516        O520   1.371       .  S
O518        H522   0.992       .  S
O520        H521   0.991       .  S
C523        C524   1.406       .  A
C523        C528   1.414       .  A
C524        C525   1.399       .  A
C524        H529   1.083       .  S
C525        C526   1.403       .  A
C525        O530   1.368       .  S
C526        C527   1.403       .  A
C527        C528   1.403       .  A
C527        H531   1.084       .  S
C528        O532   1.371       .  S
O530        H534   0.992       .  S
O532        H533   0.992       .  S
C535        C536   1.397       .  A
C535        C540   1.406       .  A
C536        C537   1.401       .  A
C536        H541   1.084       .  S
C537        C538   1.414       .  A
C537        O542   1.373       .  S
C538        C539   1.408       .  A
C539        C540   1.400       .  A
C539        H543   1.083       .  S
C540        O544   1.372       .  S
O542        H546   0.992       .  S
O544        H545   0.992       .  S
C547        C548   1.398       .  A
C547        C552   1.404       .  A
C548        C549   1.400       .  A
C548        H553   1.082       .  S
C549        C550   1.414       .  A
C549       O1394   1.372       .  S
C550        C551   1.407       .  A
C551        C552   1.400       .  A
C551        H555   1.083       .  S
C552        O556   1.374       .  S
O554       C1389   1.372       .  S
O554        H558   0.992       .  S
O556        H557   0.992       .  S
C559        C560   1.399       .  A
C559        C564   1.405       .  A
C560        C561   1.401       .  A
C560        H565   1.083       .  S
C561        C562   1.416       .  A
C561        O566   1.372       .  S
C562        C563   1.408       .  A
C563        C564   1.403       .  A
C563        H567   1.083       .  S
C564        O568   1.372       .  S
O566        H570   0.992       .  S
O568        H569   0.992       .  S
C571        C572   1.400       .  A
C571        C576   1.406       .  A
C572        C573   1.400       .  A
C572        H577   1.084       .  S
C573        C574   1.413       .  A
C573        O578   1.372       .  S
C574        C575   1.405       .  A
C575        C576   1.399       .  A
C575        H579   1.083       .  S
C576        O580   1.372       .  S
O578       H1422   0.992       .  S
O580        H581   0.992       .  S
H582       O1418   0.992   1_455  S
C583        C584   1.401       .  A
C583        C588   1.405       .  A
C584        C585   1.399       .  A
C584        H589   1.084       .  S
C585        C586   1.411       .  A
C585        O590   1.372       .  S
C586        C587   1.406       .  A
C587        C588   1.396       .  A
C587        H591   1.083       .  S
C588        O592   1.372       .  S
O590        H594   0.992       .  S
O592        H593   0.992       .  S
C595        C596   1.405       .  A
C595        C600   1.409       .  A
C596        C597   1.400       .  A
C596        H601   1.083       .  S
C597        C598   1.407       .  A
C597        O602   1.372       .  S
C598        C599   1.402       .  A
C599        C600   1.399       .  A
C599        H603   1.084       .  S
C600        O604   1.371       .  S
O604        H605   0.992       .  S
C607        C608   1.403       .  A
C607        C612   1.409       .  A
C608        C609   1.400       .  A
C608        H613   1.084       .  S
C609        C610   1.408       .  A
C609        O614   1.372       .  S
C610        C611   1.400       .  A
C611        C612   1.400       .  A
C611        H615   1.084       .  S
C612        O616   1.373       .  S
O614        H618   0.992       .  S
O616        H617   0.992       .  S
C619        C620   1.402       .  A
C619        C624   1.412       .  A
C620        C621   1.400       .  A
C620        H625   1.084       .  S
C621        C622   1.409       .  A
C622        C623   1.402       .  A
C623        C624   1.401       .  A
C623        H627   1.084       .  S
C624        O628   1.371       .  S
O626        H630   0.992       .  S
O628        H629   0.992       .  S
C631        H632   1.111       .  S
C631        C637   1.536       .  S
C631        C636   1.537       .  S
C631        C635   1.539       .  S
C633        H634   1.112       .  S
C633        C639   1.531       .  S
C633        C638   1.532       .  S
C633        C640   1.532       .  S
C635        C638   1.374       .  D
C635        C805   1.485       .  S
C636        C639   1.374       .  D
C636        C817   1.483       .  S
C637        C640   1.374       .  D
C637        C829   1.487       .  S
C638        C769   1.481       .  S
C639        C781   1.478       .  S
C640        C793   1.475       .  S
C641        H642   1.109       .  S
C641        C647   1.539       .  S
C641        C646   1.531       .  S
C641        C645   1.543       .  S
C643        H644   1.108       .  S
C643        C649   1.541       .  S
C643        C648   1.546       .  S
C643        C650   1.538       .  S
C645        C648   1.389       .  D
C645        C748   1.496       .  S
C646        C649   1.365       .  D
C646        C736   1.485       .  S
C647        C650   1.373       .  D
C647        C757   1.477       .  S
C648        C709   1.505       .  S
C649        C697   1.476       .  S
C650        C721   1.496       .  S
Zn651      O1495   1.958   1_565  S
Zn651      O1496   2.007   1_455  S
Zn652       O655   1.955   1_565  S
Zn652       O659   2.021       .  S
Zn653      O1498   2.036   1_545  S
Zn653       O661   2.027   1_545  S
Zn653      O1084   2.001       .  S
Zn654      O1075   1.966       .  S
Zn654      O1505   2.035   1_455  S
Zn654       O666   2.022       .  S
O655      Zn1491   1.958   1_545  S
O655      Zn1074   1.966       .  S
O656      Zn1491   2.007       .  S
O656        C668   1.272       .  A
O657        C669   1.274       .  A
O658      Zn1493   2.036   1_565  S
O658        C670   1.276       .  A
O659        C668   1.274       .  A
O660        C670   1.272       .  A
O661        C669   1.274       .  A
O662        C671   1.273       .  A
O663        C672   1.274       .  A
O664      Zn1073   2.001       .  S
O664        C671   1.270       .  A
O665      Zn1494   2.035       .  S
O665        C672   1.276       .  A
O666        C673   1.274       .  A
O667        C673   1.273       .  A
C668        C784   1.480       .  S
C669        C712   1.478       .  S
C670        C724   1.476       .  S
C671        C700   1.463       .  S
C672        C772   1.491       .  S
C673        C796   1.477       .  S
Zn674       O679   2.008       .  S
Zn674       O683   2.029       .  S
Zn675       O678   1.963       .  S
Zn675      O1100   2.024   1_565  S
Zn675      O1526   2.020       .  S
Zn676      O1098   1.952       .  S
Zn676      O1521   2.018       .  S
Zn676       O684   2.008       .  S
Zn677      O1518   1.962       .  S
Zn677       O685   1.997       .  S
Zn677       O688   2.010       .  S
Zn677      O1529   2.012       .  S
O678      Zn1096   1.952   1_565  S
O678      Zn1517   1.962       .  S
O679        C691   1.273       .  A
O680      Zn1095   2.024       .  S
O680        C692   1.274       .  A
O681      Zn1516   2.018   1_455  S
O681        C693   1.274       .  A
O682        C691   1.276       .  A
O683        C693   1.274       .  A
O684        C692   1.272       .  A
O685        C694   1.270       .  A
O686      Zn1515   2.020       .  S
O686        C695   1.274       .  A
O687        C694   1.274       .  A
O688        C695   1.272       .  A
O689      Zn1517   2.012   1_455  S
O689        C696   1.272       .  A
O690        C696   1.273       .  A
C691        C832   1.476       .  S
C692        C808   1.473       .  S
C693        C733   1.488       .  S
C694        C745   1.470       .  S
C695        C820   1.470       .  S
C696        C760   1.484       .  S
C697        C698   1.398       .  A
C697        C702   1.407       .  A
C698        C699   1.395       .  A
C698        H703   1.080       .  S
C699        C700   1.403       .  A
C699        O704   1.372       .  S
C700        C701   1.402       .  A
C701        C702   1.406       .  A
C701        H705   1.084       .  S
C702        O706   1.376       .  S
O704        H708   0.992       .  S
O706        H707   0.992       .  S
C709        C710   1.410       .  A
C709        C714   1.414       .  A
C710        C711   1.404       .  A
C710        H715   1.083       .  S
C711        C712   1.408       .  A
C712        C713   1.398       .  A
C713        C714   1.401       .  A
C713        H717   1.084       .  S
C714        O718   1.370       .  S
O716        H720   0.992       .  S
O718        H719   0.992       .  S
C721        C722   1.406       .  A
C721        C726   1.410       .  A
C722        C723   1.400       .  A
C722        H727   1.076       .  S
C723        C724   1.405       .  A
C723        O728   1.372   1_565  S
C724        C725   1.402       .  A
C725        C726   1.404       .  A
C725        H729   1.084       .  S
C726        O730   1.371       .  S
O728        H732   0.992       .  S
O730        H731   0.991       .  S
C733        C734   1.406       .  A
C733        C738   1.414       .  A
C734        C735   1.399       .  A
C734        H739   1.083       .  S
C735        C736   1.403       .  A
C735        O740   1.368       .  S
C736        C737   1.403       .  A
C737        C738   1.403       .  A
C737        H741   1.084       .  S
C738        O742   1.371       .  S
O740        H744   0.992       .  S
O742        H743   0.992       .  S
C745        C746   1.397       .  A
C745        C750   1.406       .  A
C746        C747   1.401       .  A
C746        H751   1.084       .  S
C747        C748   1.414       .  A
C747        O752   1.373       .  S
C748        C749   1.408       .  A
C749        C750   1.400       .  A
C749        H753   1.083       .  S
C750        O754   1.372       .  S
O752        H756   0.992       .  S
O754        H755   0.992       .  S
C757        C758   1.398       .  A
C757        C762   1.404       .  A
C758        C759   1.400       .  A
C758        H763   1.082       .  S
C759        C760   1.414       .  A
C759       O1604   1.372       .  S
C760        C761   1.407       .  A
C761        C762   1.400       .  A
C761        H765   1.083       .  S
C762        O766   1.374       .  S
O764       C1599   1.372       .  S
O764        H768   0.992       .  S
O766        H767   0.992       .  S
C769        C770   1.399       .  A
C769        C774   1.405       .  A
C770        C771   1.401       .  A
C770        H775   1.083       .  S
C771        C772   1.416       .  A
C771        O776   1.372       .  S
C772        C773   1.408       .  A
C773        C774   1.403       .  A
C773        H777   1.083       .  S
C774        O778   1.372       .  S
O776        H780   0.992       .  S
O778        H779   0.992       .  S
C781        C782   1.400       .  A
C781        C786   1.406       .  A
C782        C783   1.400       .  A
C782        H787   1.084       .  S
C783        C784   1.413       .  A
C783        O788   1.372       .  S
C784        C785   1.405       .  A
C785        C786   1.399       .  A
C785        H789   1.083       .  S
C786        O790   1.372       .  S
O788       H1632   0.992       .  S
O790        H791   0.992       .  S
H792       O1628   0.992   1_455  S
C793        C794   1.401       .  A
C793        C798   1.405       .  A
C794        C795   1.399       .  A
C794        H799   1.084       .  S
C795        C796   1.411       .  A
C795        O800   1.372       .  S
C796        C797   1.406       .  A
C797        C798   1.396       .  A
C797        H801   1.083       .  S
C798        O802   1.372       .  S
O800        H804   0.992       .  S
O802        H803   0.992       .  S
C805        C806   1.405       .  A
C805        C810   1.409       .  A
C806        C807   1.400       .  A
C806        H811   1.083       .  S
C807        C808   1.407       .  A
C807        O812   1.372       .  S
C808        C809   1.402       .  A
C809        C810   1.399       .  A
C809        H813   1.084       .  S
C810        O814   1.371       .  S
O814        H815   0.992       .  S
C817        C818   1.403       .  A
C817        C822   1.409       .  A
C818        C819   1.400       .  A
C818        H823   1.084       .  S
C819        C820   1.408       .  A
C819        O824   1.372       .  S
C820        C821   1.400       .  A
C821        C822   1.400       .  A
C821        H825   1.084       .  S
C822        O826   1.373       .  S
O824        H828   0.992       .  S
O826        H827   0.992       .  S
C829        C830   1.402       .  A
C829        C834   1.412       .  A
C830        C831   1.400       .  A
C830        H835   1.084       .  S
C831        C832   1.409       .  A
C832        C833   1.402       .  A
C833        C834   1.401       .  A
C833        H837   1.084       .  S
C834        O838   1.371       .  S
O836        H840   0.992       .  S
O838        H839   0.992       .  S
C841        H842   1.111       .  S
C841        C847   1.536       .  S
C841        C846   1.537       .  S
C841        C845   1.539       .  S
C843        H844   1.112       .  S
C843        C849   1.531       .  S
C843        C848   1.532       .  S
C843        C850   1.532       .  S
C845        C848   1.374       .  D
C845       C1015   1.485       .  S
C846        C849   1.374       .  D
C846       C1027   1.483       .  S
C847        C850   1.374       .  D
C847       C1039   1.487       .  S
C848        C979   1.481       .  S
C849        C991   1.478       .  S
C850       C1003   1.475       .  S
C851        H852   1.109       .  S
C851        C857   1.539       .  S
C851        C856   1.531       .  S
C851        C855   1.543       .  S
C853        H854   1.108       .  S
C853        C859   1.541       .  S
C853        C858   1.546       .  S
C853        C860   1.538       .  S
C855        C858   1.389       .  D
C855        C958   1.496       .  S
C856        C859   1.365       .  D
C856        C946   1.485       .  S
C857        C860   1.373       .  D
C857        C967   1.477       .  S
C858        C919   1.505       .  S
C859        C907   1.476       .  S
C860        C931   1.496       .  S
Zn861      O1080   2.007       .  S
Zn861      O1297   2.006       .  S
Zn862       O865   1.955   1_655  S
Zn862      O1077   2.015       .  S
Zn862       O869   2.021       .  S
Zn862      O1293   2.019       .  S
Zn863      O1075   1.967   1_554  S
Zn863       O871   2.027   1_455  S
Zn864      O1082   2.019       .  S
Zn864       O876   2.022       .  S
O865      Zn1073   1.967       .  S
O866        C878   1.272       .  A
O867      Zn1072   2.015   1_554  S
O867        C879   1.274       .  A
O868        C880   1.276       .  A
O869        C878   1.274       .  A
O870      Zn1071   2.007   1_554  S
O870        C880   1.272       .  A
O871        C879   1.274       .  A
O872      Zn1074   2.019   1_554  S
O872        C881   1.273       .  A
O873      Zn1282   2.019   1_545  S
O873        C882   1.274       .  A
O874        C881   1.270       .  A
O875        C882   1.276       .  A
O876        C883   1.274       .  A
O877      Zn1281   2.006   1_545  S
O877        C883   1.273       .  A
C878        C994   1.480       .  S
C879        C922   1.478       .  S
C880        C934   1.476       .  S
C881        C910   1.463       .  S
C882        C982   1.491       .  S
C883       C1006   1.477       .  S
Zn884      O1308   1.955   1_545  S
Zn884       O889   2.008       .  S
Zn884       O893   2.029       .  S
Zn884      O1320   2.002   1_545  S
Zn885       O888   1.963       .  S
Zn885      O1312   2.034       .  S
Zn886       O894   2.008       .  S
Zn886      O1317   2.018   1_545  S
Zn887       O895   1.997       .  S
Zn887       O898   2.010       .  S
O888      Zn1304   1.955       .  S
O889        C901   1.273       .  A
O890        C902   1.274       .  A
O891        C903   1.274       .  A
O892      Zn1305   2.034   1_545  S
O892        C901   1.276       .  A
O893        C903   1.274       .  A
O894        C902   1.272       .  A
O895        C904   1.270       .  A
O896        C905   1.274       .  A
O897      Zn1306   2.018       .  S
O897        C904   1.274       .  A
O898        C905   1.272       .  A
O899        C906   1.272       .  A
O900      Zn1304   2.002       .  S
O900        C906   1.273       .  A
C901       C1042   1.476       .  S
C902       C1018   1.473       .  S
C903        C943   1.488       .  S
C904        C955   1.470       .  S
C905       C1030   1.470       .  S
C906        C970   1.484       .  S
C907        C908   1.398       .  A
C907        C912   1.407       .  A
C908        C909   1.395       .  A
C908        H913   1.080       .  S
C909        C910   1.403       .  A
C909        O914   1.372       .  S
C910        C911   1.402       .  A
C911        C912   1.406       .  A
C911        H915   1.084       .  S
C912        O916   1.376       .  S
O914        H918   0.992       .  S
O916        H917   0.992       .  S
C919        C920   1.410       .  A
C919        C924   1.414       .  A
C920        C921   1.404       .  A
C920        H925   1.083       .  S
C921        C922   1.408       .  A
C921       O1346   1.371       .  S
C922        C923   1.398       .  A
C923        C924   1.401       .  A
C923        H927   1.084       .  S
C924        O928   1.370       .  S
O926       C1341   1.371       .  S
O926        H930   0.992   1_565  S
O928        H929   0.992       .  S
C931        C932   1.406       .  A
C931        C936   1.410       .  A
C932        C933   1.400       .  A
C932        H937   1.076       .  S
C933        C934   1.405       .  A
C933        O938   1.372       .  S
C934        C935   1.402       .  A
C935        C936   1.404       .  A
C935        H939   1.084       .  S
C936        O940   1.371       .  S
O938        H942   0.992       .  S
O940        H941   0.991       .  S
C943        C944   1.406       .  A
C943        C948   1.414       .  A
C944        C945   1.399       .  A
C944        H949   1.083       .  S
C945        C946   1.403       .  A
C945        O950   1.368       .  S
C946        C947   1.403       .  A
C947        C948   1.403       .  A
C947        H951   1.084       .  S
C948        O952   1.371       .  S
O950        H954   0.992       .  S
O952        H953   0.992       .  S
C955        C956   1.397       .  A
C955        C960   1.406       .  A
C956        C957   1.401       .  A
C956        H961   1.084       .  S
C957        C958   1.414       .  A
C957        O962   1.373       .  S
C958        C959   1.408       .  A
C959        C960   1.400       .  A
C959        H963   1.083       .  S
C960        O964   1.372       .  S
O962        H966   0.992       .  S
O964        H965   0.992       .  S
C967        C968   1.398       .  A
C967        C972   1.404       .  A
C968        C969   1.400       .  A
C968        H973   1.082       .  S
C969        C970   1.414       .  A
C970        C971   1.407       .  A
C971        C972   1.400       .  A
C971        H975   1.083       .  S
C972        O976   1.374       .  S
O974        H978   0.992   1_455  S
O976        H977   0.992       .  S
C979        C980   1.399       .  A
C979        C984   1.405       .  A
C980        C981   1.401       .  A
C980        H985   1.083       .  S
C981        C982   1.416       .  A
C981        O986   1.372       .  S
C982        C983   1.408       .  A
C983        C984   1.403       .  A
C983        H987   1.083       .  S
C984        O988   1.372       .  S
O986        H990   0.992       .  S
O988        H989   0.992       .  S
C991        C992   1.400       .  A
C991        C996   1.406       .  A
C992        C993   1.400       .  A
C992        H997   1.084       .  S
C993        C994   1.413       .  A
C993        O998   1.372       .  S
C994        C995   1.405       .  A
C995        C996   1.399       .  A
C995        H999   1.083       .  S
C996       O1000   1.372       .  S
O1000      H1001   0.992       .  S
C1003      C1004   1.401       .  A
C1003      C1008   1.405       .  A
C1004      C1005   1.399       .  A
C1004      H1009   1.084       .  S
C1005      C1006   1.411       .  A
C1005      O1010   1.372       .  S
C1006      C1007   1.406       .  A
C1007      C1008   1.396       .  A
C1007      H1011   1.083       .  S
C1008      O1012   1.372       .  S
O1010      H1014   0.992       .  S
O1012      H1013   0.992       .  S
C1015      C1016   1.405       .  A
C1015      C1020   1.409       .  A
C1016      C1017   1.400       .  A
C1016      H1021   1.083       .  S
C1017      C1018   1.407       .  A
C1017      O1022   1.372   1_545  S
C1018      C1019   1.402       .  A
C1019      C1020   1.399       .  A
C1019      H1023   1.084       .  S
C1020      O1024   1.371       .  S
O1022      H1446   0.992       .  S
O1024      H1025   0.992       .  S
H1026      O1442   0.992       .  S
C1027      C1028   1.403       .  A
C1027      C1032   1.409       .  A
C1028      C1029   1.400       .  A
C1028      H1033   1.084       .  S
C1029      C1030   1.408       .  A
C1029      O1034   1.372       .  S
C1030      C1031   1.400       .  A
C1031      C1032   1.400       .  A
C1031      H1035   1.084       .  S
C1032      O1036   1.373       .  S
O1034      H1038   0.992       .  S
O1036      H1037   0.992       .  S
C1039      C1040   1.402       .  A
C1039      C1044   1.412       .  A
C1040      C1041   1.400       .  A
C1040      H1045   1.084       .  S
C1041      C1042   1.409       .  A
C1041      O1466   1.372       .  S
C1042      C1043   1.402       .  A
C1043      C1044   1.401       .  A
C1043      H1047   1.084       .  S
C1044      O1048   1.371       .  S
O1046      C1461   1.372       .  S
O1046      H1050   0.992       .  S
O1048      H1049   0.992       .  S
C1051      H1052   1.111       .  S
C1051      C1057   1.536       .  S
C1051      C1056   1.537       .  S
C1051      C1055   1.539       .  S
C1053      H1054   1.112       .  S
C1053      C1059   1.531       .  S
C1053      C1058   1.532       .  S
C1053      C1060   1.532       .  S
C1055      C1058   1.374       .  D
C1055      C1225   1.485       .  S
C1056      C1059   1.374       .  D
C1056      C1237   1.483       .  S
C1057      C1060   1.374       .  D
C1057      C1249   1.487       .  S
C1058      C1189   1.481       .  S
C1059      C1201   1.478       .  S
C1060      C1213   1.475       .  S
C1061      H1062   1.109       .  S
C1061      C1067   1.539       .  S
C1061      C1066   1.531       .  S
C1061      C1065   1.543       .  S
C1063      H1064   1.108       .  S
C1063      C1069   1.541       .  S
C1063      C1068   1.546       .  S
C1063      C1070   1.538       .  S
C1065      C1068   1.389       .  D
C1065      C1168   1.496       .  S
C1066      C1069   1.365       .  D
C1066      C1156   1.485       .  S
C1067      C1070   1.373       .  D
C1067      C1177   1.477       .  S
C1068      C1129   1.505       .  S
C1069      C1117   1.476       .  S
C1070      C1141   1.496       .  S
Zn1071     O1507   2.006       .  S
Zn1072     O1075   1.955   1_655  S
Zn1072     O1079   2.021       .  S
Zn1072     O1503   2.019       .  S
Zn1073     O1081   2.027   1_455  S
Zn1074     O1086   2.022       .  S
O1076      C1088   1.272       .  A
O1077      C1089   1.274       .  A
O1078      C1090   1.276       .  A
O1079      C1088   1.274       .  A
O1080      C1090   1.272       .  A
O1081      C1089   1.274       .  A
O1082      C1091   1.273       .  A
O1083     Zn1492   2.019   1_545  S
O1083      C1092   1.274       .  A
O1084      C1091   1.270       .  A
O1085      C1092   1.276       .  A
O1086      C1093   1.274       .  A
O1087     Zn1491   2.006   1_545  S
O1087      C1093   1.273       .  A
C1088      C1204   1.480       .  S
C1089      C1132   1.478       .  S
C1090      C1144   1.476       .  S
C1091      C1120   1.463       .  S
C1092      C1192   1.491       .  S
C1093      C1216   1.477       .  S
Zn1094     O1518   1.955   1_545  S
Zn1094     O1099   2.008       .  S
Zn1094     O1103   2.029       .  S
Zn1094     O1530   2.002   1_545  S
Zn1095     O1098   1.963       .  S
Zn1095     O1522   2.034       .  S
Zn1096     O1104   2.008       .  S
Zn1096     O1527   2.018   1_545  S
Zn1097     O1105   1.997       .  S
Zn1097     O1108   2.010       .  S
O1098     Zn1514   1.955       .  S
O1099      C1111   1.273       .  A
O1100      C1112   1.274       .  A
O1101      C1113   1.274       .  A
O1102     Zn1515   2.034   1_545  S
O1102      C1111   1.276       .  A
O1103      C1113   1.274       .  A
O1104      C1112   1.272       .  A
O1105      C1114   1.270       .  A
O1106      C1115   1.274       .  A
O1107     Zn1516   2.018       .  S
O1107      C1114   1.274       .  A
O1108      C1115   1.272       .  A
O1109      C1116   1.272       .  A
O1110     Zn1514   2.002       .  S
O1110      C1116   1.273       .  A
C1111      C1252   1.476       .  S
C1112      C1228   1.473       .  S
C1113      C1153   1.488       .  S
C1114      C1165   1.470       .  S
C1115      C1240   1.470       .  S
C1116      C1180   1.484       .  S
C1117      C1118   1.398       .  A
C1117      C1122   1.407       .  A
C1118      C1119   1.395       .  A
C1118      H1123   1.080       .  S
C1119      C1120   1.403       .  A
C1119      O1124   1.372       .  S
C1120      C1121   1.402       .  A
C1121      C1122   1.406       .  A
C1121      H1125   1.084       .  S
C1122      O1126   1.376       .  S
O1124      H1128   0.992       .  S
O1126      H1127   0.992       .  S
C1129      C1130   1.410       .  A
C1129      C1134   1.414       .  A
C1130      C1131   1.404       .  A
C1130      H1135   1.083       .  S
C1131      C1132   1.408       .  A
C1131      O1556   1.371       .  S
C1132      C1133   1.398       .  A
C1133      C1134   1.401       .  A
C1133      H1137   1.084       .  S
C1134      O1138   1.370       .  S
O1136      C1551   1.371       .  S
O1136      H1140   0.992   1_565  S
O1138      H1139   0.992       .  S
C1141      C1142   1.406       .  A
C1141      C1146   1.410       .  A
C1142      C1143   1.400       .  A
C1142      H1147   1.076       .  S
C1143      C1144   1.405       .  A
C1143      O1148   1.372       .  S
C1144      C1145   1.402       .  A
C1145      C1146   1.404       .  A
C1145      H1149   1.084       .  S
C1146      O1150   1.371       .  S
O1148      H1152   0.992       .  S
O1150      H1151   0.991       .  S
C1153      C1154   1.406       .  A
C1153      C1158   1.414       .  A
C1154      C1155   1.399       .  A
C1154      H1159   1.083       .  S
C1155      C1156   1.403       .  A
C1155      O1160   1.368       .  S
C1156      C1157   1.403       .  A
C1157      C1158   1.403       .  A
C1157      H1161   1.084       .  S
C1158      O1162   1.371       .  S
O1160      H1164   0.992       .  S
O1162      H1163   0.992       .  S
C1165      C1166   1.397       .  A
C1165      C1170   1.406       .  A
C1166      C1167   1.401       .  A
C1166      H1171   1.084       .  S
C1167      C1168   1.414       .  A
C1167      O1172   1.373       .  S
C1168      C1169   1.408       .  A
C1169      C1170   1.400       .  A
C1169      H1173   1.083       .  S
C1170      O1174   1.372       .  S
O1172      H1176   0.992       .  S
O1174      H1175   0.992       .  S
C1177      C1178   1.398       .  A
C1177      C1182   1.404       .  A
C1178      C1179   1.400       .  A
C1178      H1183   1.082       .  S
C1179      C1180   1.414       .  A
C1180      C1181   1.407       .  A
C1181      C1182   1.400       .  A
C1181      H1185   1.083       .  S
C1182      O1186   1.374       .  S
O1184      H1188   0.992   1_455  S
O1186      H1187   0.992       .  S
C1189      C1190   1.399       .  A
C1189      C1194   1.405       .  A
C1190      C1191   1.401       .  A
C1190      H1195   1.083       .  S
C1191      C1192   1.416       .  A
C1191      O1196   1.372       .  S
C1192      C1193   1.408       .  A
C1193      C1194   1.403       .  A
C1193      H1197   1.083       .  S
C1194      O1198   1.372       .  S
O1196      H1200   0.992       .  S
O1198      H1199   0.992       .  S
C1201      C1202   1.400       .  A
C1201      C1206   1.406       .  A
C1202      C1203   1.400       .  A
C1202      H1207   1.084       .  S
C1203      C1204   1.413       .  A
C1203      O1208   1.372       .  S
C1204      C1205   1.405       .  A
C1205      C1206   1.399       .  A
C1205      H1209   1.083       .  S
C1206      O1210   1.372       .  S
O1210      H1211   0.992       .  S
C1213      C1214   1.401       .  A
C1213      C1218   1.405       .  A
C1214      C1215   1.399       .  A
C1214      H1219   1.084       .  S
C1215      C1216   1.411       .  A
C1215      O1220   1.372       .  S
C1216      C1217   1.406       .  A
C1217      C1218   1.396       .  A
C1217      H1221   1.083       .  S
C1218      O1222   1.372       .  S
O1220      H1224   0.992       .  S
O1222      H1223   0.992       .  S
C1225      C1226   1.405       .  A
C1225      C1230   1.409       .  A
C1226      C1227   1.400       .  A
C1226      H1231   1.083       .  S
C1227      C1228   1.407       .  A
C1227      O1232   1.372   1_545  S
C1228      C1229   1.402       .  A
C1229      C1230   1.399       .  A
C1229      H1233   1.084       .  S
C1230      O1234   1.371       .  S
O1232      H1656   0.992       .  S
O1234      H1235   0.992       .  S
H1236      O1652   0.992       .  S
C1237      C1238   1.403       .  A
C1237      C1242   1.409       .  A
C1238      C1239   1.400       .  A
C1238      H1243   1.084       .  S
C1239      C1240   1.408       .  A
C1239      O1244   1.372       .  S
C1240      C1241   1.400       .  A
C1241      C1242   1.400       .  A
C1241      H1245   1.084       .  S
C1242      O1246   1.373       .  S
O1244      H1248   0.992       .  S
O1246      H1247   0.992       .  S
C1249      C1250   1.402       .  A
C1249      C1254   1.412       .  A
C1250      C1251   1.400       .  A
C1250      H1255   1.084       .  S
C1251      C1252   1.409       .  A
C1251      O1676   1.372       .  S
C1252      C1253   1.402       .  A
C1253      C1254   1.401       .  A
C1253      H1257   1.084       .  S
C1254      O1258   1.371       .  S
O1256      C1671   1.372       .  S
O1256      H1260   0.992       .  S
O1258      H1259   0.992       .  S
C1261      H1262   1.111       .  S
C1261      C1267   1.536       .  S
C1261      C1266   1.537       .  S
C1261      C1265   1.539       .  S
C1263      H1264   1.112       .  S
C1263      C1269   1.531       .  S
C1263      C1268   1.532       .  S
C1263      C1270   1.532       .  S
C1265      C1268   1.374       .  D
C1265      C1435   1.485       .  S
C1266      C1269   1.374       .  D
C1266      C1447   1.483       .  S
C1267      C1270   1.374       .  D
C1267      C1459   1.487       .  S
C1268      C1399   1.481       .  S
C1269      C1411   1.478       .  S
C1270      C1423   1.475       .  S
C1271      H1272   1.109       .  S
C1271      C1277   1.539       .  S
C1271      C1276   1.531       .  S
C1271      C1275   1.543       .  S
C1273      H1274   1.108       .  S
C1273      C1279   1.541       .  S
C1273      C1278   1.546       .  S
C1273      C1280   1.538       .  S
C1275      C1278   1.389       .  D
C1275      C1378   1.496       .  S
C1276      C1279   1.365       .  D
C1276      C1366   1.485       .  S
C1277      C1280   1.373       .  D
C1277      C1387   1.477       .  S
C1278      C1339   1.505       .  S
C1279      C1327   1.476       .  S
C1280      C1351   1.496       .  S
Zn1281     O1500   2.007       .  S
Zn1282     O1285   1.955   1_665  S
Zn1282     O1497   2.015       .  S
Zn1282     O1289   2.021       .  S
Zn1283     O1495   1.967   1_554  S
Zn1283     O1291   2.027   1_445  S
Zn1284     O1502   2.019       .  S
Zn1284     O1296   2.022       .  S
O1285     Zn1493   1.967       .  S
O1286      C1298   1.272       .  A
O1287     Zn1492   2.015   1_554  S
O1287      C1299   1.274       .  A
O1288      C1300   1.276       .  A
O1289      C1298   1.274       .  A
O1290     Zn1491   2.007   1_554  S
O1290      C1300   1.272       .  A
O1291      C1299   1.274       .  A
O1292     Zn1494   2.019   1_554  S
O1292      C1301   1.273       .  A
O1293      C1302   1.274       .  A
O1294      C1301   1.270       .  A
O1295      C1302   1.276       .  A
O1296      C1303   1.274       .  A
O1297      C1303   1.273       .  A
C1298      C1414   1.480       .  S
C1299      C1342   1.478       .  S
C1300      C1354   1.476       .  S
C1301      C1330   1.463       .  S
C1302      C1402   1.491       .  S
C1303      C1426   1.477       .  S
Zn1304     O1309   2.008       .  S
Zn1304     O1313   2.029       .  S
Zn1305     O1308   1.963       .  S
Zn1306     O1314   2.008       .  S
Zn1307     O1315   1.997       .  S
Zn1307     O1318   2.010       .  S
O1309      C1321   1.273       .  A
O1310      C1322   1.274       .  A
O1311      C1323   1.274       .  A
O1312      C1321   1.276       .  A
O1313      C1323   1.274       .  A
O1314      C1322   1.272       .  A
O1315      C1324   1.270       .  A
O1316      C1325   1.274       .  A
O1317      C1324   1.274       .  A
O1318      C1325   1.272       .  A
O1319      C1326   1.272       .  A
O1320      C1326   1.273       .  A
C1321      C1462   1.476       .  S
C1322      C1438   1.473       .  S
C1323      C1363   1.488       .  S
C1324      C1375   1.470       .  S
C1325      C1450   1.470       .  S
C1326      C1390   1.484       .  S
C1327      C1328   1.398       .  A
C1327      C1332   1.407       .  A
C1328      C1329   1.395       .  A
C1328      H1333   1.080       .  S
C1329      C1330   1.403       .  A
C1329      O1334   1.372       .  S
C1330      C1331   1.402       .  A
C1331      C1332   1.406       .  A
C1331      H1335   1.084       .  S
C1332      O1336   1.376       .  S
O1334      H1338   0.992       .  S
O1336      H1337   0.992       .  S
C1339      C1340   1.410       .  A
C1339      C1344   1.414       .  A
C1340      C1341   1.404       .  A
C1340      H1345   1.083       .  S
C1341      C1342   1.408       .  A
C1342      C1343   1.398       .  A
C1343      C1344   1.401       .  A
C1343      H1347   1.084       .  S
C1344      O1348   1.370       .  S
O1346      H1350   0.992       .  S
O1348      H1349   0.992       .  S
C1351      C1352   1.406       .  A
C1351      C1356   1.410       .  A
C1352      C1353   1.400       .  A
C1352      H1357   1.076       .  S
C1353      C1354   1.405       .  A
C1353      O1358   1.372   1_565  S
C1354      C1355   1.402       .  A
C1355      C1356   1.404       .  A
C1355      H1359   1.084       .  S
C1356      O1360   1.371       .  S
O1358      H1362   0.992       .  S
O1360      H1361   0.991       .  S
C1363      C1364   1.406       .  A
C1363      C1368   1.414       .  A
C1364      C1365   1.399       .  A
C1364      H1369   1.083       .  S
C1365      C1366   1.403       .  A
C1365      O1370   1.368       .  S
C1366      C1367   1.403       .  A
C1367      C1368   1.403       .  A
C1367      H1371   1.084       .  S
C1368      O1372   1.371       .  S
O1370      H1374   0.992       .  S
O1372      H1373   0.992       .  S
C1375      C1376   1.397       .  A
C1375      C1380   1.406       .  A
C1376      C1377   1.401       .  A
C1376      H1381   1.084       .  S
C1377      C1378   1.414       .  A
C1377      O1382   1.373       .  S
C1378      C1379   1.408       .  A
C1379      C1380   1.400       .  A
C1379      H1383   1.083       .  S
C1380      O1384   1.372       .  S
O1382      H1386   0.992       .  S
O1384      H1385   0.992       .  S
C1387      C1388   1.398       .  A
C1387      C1392   1.404       .  A
C1388      C1389   1.400       .  A
C1388      H1393   1.082       .  S
C1389      C1390   1.414       .  A
C1390      C1391   1.407       .  A
C1391      C1392   1.400       .  A
C1391      H1395   1.083       .  S
C1392      O1396   1.374       .  S
O1394      H1398   0.992   1_455  S
O1396      H1397   0.992       .  S
C1399      C1400   1.399       .  A
C1399      C1404   1.405       .  A
C1400      C1401   1.401       .  A
C1400      H1405   1.083       .  S
C1401      C1402   1.416       .  A
C1401      O1406   1.372       .  S
C1402      C1403   1.408       .  A
C1403      C1404   1.403       .  A
C1403      H1407   1.083       .  S
C1404      O1408   1.372       .  S
O1406      H1410   0.992       .  S
O1408      H1409   0.992       .  S
C1411      C1412   1.400       .  A
C1411      C1416   1.406       .  A
C1412      C1413   1.400       .  A
C1412      H1417   1.084       .  S
C1413      C1414   1.413       .  A
C1413      O1418   1.372       .  S
C1414      C1415   1.405       .  A
C1415      C1416   1.399       .  A
C1415      H1419   1.083       .  S
C1416      O1420   1.372       .  S
O1420      H1421   0.992       .  S
C1423      C1424   1.401       .  A
C1423      C1428   1.405       .  A
C1424      C1425   1.399       .  A
C1424      H1429   1.084       .  S
C1425      C1426   1.411       .  A
C1425      O1430   1.372       .  S
C1426      C1427   1.406       .  A
C1427      C1428   1.396       .  A
C1427      H1431   1.083       .  S
C1428      O1432   1.372       .  S
O1430      H1434   0.992       .  S
O1432      H1433   0.992       .  S
C1435      C1436   1.405       .  A
C1435      C1440   1.409       .  A
C1436      C1437   1.400       .  A
C1436      H1441   1.083       .  S
C1437      C1438   1.407       .  A
C1437      O1442   1.372       .  S
C1438      C1439   1.402       .  A
C1439      C1440   1.399       .  A
C1439      H1443   1.084       .  S
C1440      O1444   1.371       .  S
O1444      H1445   0.992       .  S
C1447      C1448   1.403       .  A
C1447      C1452   1.409       .  A
C1448      C1449   1.400       .  A
C1448      H1453   1.084       .  S
C1449      C1450   1.408       .  A
C1449      O1454   1.372       .  S
C1450      C1451   1.400       .  A
C1451      C1452   1.400       .  A
C1451      H1455   1.084       .  S
C1452      O1456   1.373       .  S
O1454      H1458   0.992       .  S
O1456      H1457   0.992       .  S
C1459      C1460   1.402       .  A
C1459      C1464   1.412       .  A
C1460      C1461   1.400       .  A
C1460      H1465   1.084       .  S
C1461      C1462   1.409       .  A
C1462      C1463   1.402       .  A
C1463      C1464   1.401       .  A
C1463      H1467   1.084       .  S
C1464      O1468   1.371       .  S
O1466      H1470   0.992       .  S
O1468      H1469   0.992       .  S
C1471      H1472   1.111       .  S
C1471      C1477   1.536       .  S
C1471      C1476   1.537       .  S
C1471      C1475   1.539       .  S
C1473      H1474   1.112       .  S
C1473      C1479   1.531       .  S
C1473      C1478   1.532       .  S
C1473      C1480   1.532       .  S
C1475      C1478   1.374       .  D
C1475      C1645   1.485       .  S
C1476      C1479   1.374       .  D
C1476      C1657   1.483       .  S
C1477      C1480   1.374       .  D
C1477      C1669   1.487       .  S
C1478      C1609   1.481       .  S
C1479      C1621   1.478       .  S
C1480      C1633   1.475       .  S
C1481      H1482   1.109       .  S
C1481      C1487   1.539       .  S
C1481      C1486   1.531       .  S
C1481      C1485   1.543       .  S
C1483      H1484   1.108       .  S
C1483      C1489   1.541       .  S
C1483      C1488   1.546       .  S
C1483      C1490   1.538       .  S
C1485      C1488   1.389       .  D
C1485      C1588   1.496       .  S
C1486      C1489   1.365       .  D
C1486      C1576   1.485       .  S
C1487      C1490   1.373       .  D
C1487      C1597   1.477       .  S
C1488      C1549   1.505       .  S
C1489      C1537   1.476       .  S
C1490      C1561   1.496       .  S
Zn1492     O1495   1.955   1_665  S
Zn1492     O1499   2.021       .  S
Zn1493     O1501   2.027   1_445  S
Zn1494     O1506   2.022       .  S
O1496      C1508   1.272       .  A
O1497      C1509   1.274       .  A
O1498      C1510   1.276       .  A
O1499      C1508   1.274       .  A
O1500      C1510   1.272       .  A
O1501      C1509   1.274       .  A
O1502      C1511   1.273       .  A
O1503      C1512   1.274       .  A
O1504      C1511   1.270       .  A
O1505      C1512   1.276       .  A
O1506      C1513   1.274       .  A
O1507      C1513   1.273       .  A
C1508      C1624   1.480       .  S
C1509      C1552   1.478       .  S
C1510      C1564   1.476       .  S
C1511      C1540   1.463       .  S
C1512      C1612   1.491       .  S
C1513      C1636   1.477       .  S
Zn1514     O1519   2.008       .  S
Zn1514     O1523   2.029       .  S
Zn1515     O1518   1.963       .  S
Zn1516     O1524   2.008       .  S
Zn1517     O1525   1.997       .  S
Zn1517     O1528   2.010       .  S
O1519      C1531   1.273       .  A
O1520      C1532   1.274       .  A
O1521      C1533   1.274       .  A
O1522      C1531   1.276       .  A
O1523      C1533   1.274       .  A
O1524      C1532   1.272       .  A
O1525      C1534   1.270       .  A
O1526      C1535   1.274       .  A
O1527      C1534   1.274       .  A
O1528      C1535   1.272       .  A
O1529      C1536   1.272       .  A
O1530      C1536   1.273       .  A
C1531      C1672   1.476       .  S
C1532      C1648   1.473       .  S
C1533      C1573   1.488       .  S
C1534      C1585   1.470       .  S
C1535      C1660   1.470       .  S
C1536      C1600   1.484       .  S
C1537      C1538   1.398       .  A
C1537      C1542   1.407       .  A
C1538      C1539   1.395       .  A
C1538      H1543   1.080       .  S
C1539      C1540   1.403       .  A
C1539      O1544   1.372       .  S
C1540      C1541   1.402       .  A
C1541      C1542   1.406       .  A
C1541      H1545   1.084       .  S
C1542      O1546   1.376       .  S
O1544      H1548   0.992       .  S
O1546      H1547   0.992       .  S
C1549      C1550   1.410       .  A
C1549      C1554   1.414       .  A
C1550      C1551   1.404       .  A
C1550      H1555   1.083       .  S
C1551      C1552   1.408       .  A
C1552      C1553   1.398       .  A
C1553      C1554   1.401       .  A
C1553      H1557   1.084       .  S
C1554      O1558   1.370       .  S
O1556      H1560   0.992       .  S
O1558      H1559   0.992       .  S
C1561      C1562   1.406       .  A
C1561      C1566   1.410       .  A
C1562      C1563   1.400       .  A
C1562      H1567   1.076       .  S
C1563      C1564   1.405       .  A
C1563      O1568   1.372   1_565  S
C1564      C1565   1.402       .  A
C1565      C1566   1.404       .  A
C1565      H1569   1.084       .  S
C1566      O1570   1.371       .  S
O1568      H1572   0.992       .  S
O1570      H1571   0.991       .  S
C1573      C1574   1.406       .  A
C1573      C1578   1.414       .  A
C1574      C1575   1.399       .  A
C1574      H1579   1.083       .  S
C1575      C1576   1.403       .  A
C1575      O1580   1.368       .  S
C1576      C1577   1.403       .  A
C1577      C1578   1.403       .  A
C1577      H1581   1.084       .  S
C1578      O1582   1.371       .  S
O1580      H1584   0.992       .  S
O1582      H1583   0.992       .  S
C1585      C1586   1.397       .  A
C1585      C1590   1.406       .  A
C1586      C1587   1.401       .  A
C1586      H1591   1.084       .  S
C1587      C1588   1.414       .  A
C1587      O1592   1.373       .  S
C1588      C1589   1.408       .  A
C1589      C1590   1.400       .  A
C1589      H1593   1.083       .  S
C1590      O1594   1.372       .  S
O1592      H1596   0.992       .  S
O1594      H1595   0.992       .  S
C1597      C1598   1.398       .  A
C1597      C1602   1.404       .  A
C1598      C1599   1.400       .  A
C1598      H1603   1.082       .  S
C1599      C1600   1.414       .  A
C1600      C1601   1.407       .  A
C1601      C1602   1.400       .  A
C1601      H1605   1.083       .  S
C1602      O1606   1.374       .  S
O1604      H1608   0.992   1_455  S
O1606      H1607   0.992       .  S
C1609      C1610   1.399       .  A
C1609      C1614   1.405       .  A
C1610      C1611   1.401       .  A
C1610      H1615   1.083       .  S
C1611      C1612   1.416       .  A
C1611      O1616   1.372       .  S
C1612      C1613   1.408       .  A
C1613      C1614   1.403       .  A
C1613      H1617   1.083       .  S
C1614      O1618   1.372       .  S
O1616      H1620   0.992       .  S
O1618      H1619   0.992       .  S
C1621      C1622   1.400       .  A
C1621      C1626   1.406       .  A
C1622      C1623   1.400       .  A
C1622      H1627   1.084       .  S
C1623      C1624   1.413       .  A
C1623      O1628   1.372       .  S
C1624      C1625   1.405       .  A
C1625      C1626   1.399       .  A
C1625      H1629   1.083       .  S
C1626      O1630   1.372       .  S
O1630      H1631   0.992       .  S
C1633      C1634   1.401       .  A
C1633      C1638   1.405       .  A
C1634      C1635   1.399       .  A
C1634      H1639   1.084       .  S
C1635      C1636   1.411       .  A
C1635      O1640   1.372       .  S
C1636      C1637   1.406       .  A
C1637      C1638   1.396       .  A
C1637      H1641   1.083       .  S
C1638      O1642   1.372       .  S
O1640      H1644   0.992       .  S
O1642      H1643   0.992       .  S
C1645      C1646   1.405       .  A
C1645      C1650   1.409       .  A
C1646      C1647   1.400       .  A
C1646      H1651   1.083       .  S
C1647      C1648   1.407       .  A
C1647      O1652   1.372       .  S
C1648      C1649   1.402       .  A
C1649      C1650   1.399       .  A
C1649      H1653   1.084       .  S
C1650      O1654   1.371       .  S
O1654      H1655   0.992       .  S
C1657      C1658   1.403       .  A
C1657      C1662   1.409       .  A
C1658      C1659   1.400       .  A
C1658      H1663   1.084       .  S
C1659      C1660   1.408       .  A
C1659      O1664   1.372       .  S
C1660      C1661   1.400       .  A
C1661      C1662   1.400       .  A
C1661      H1665   1.084       .  S
C1662      O1666   1.373       .  S
O1664      H1668   0.992       .  S
O1666      H1667   0.992       .  S
C1669      C1670   1.402       .  A
C1669      C1674   1.412       .  A
C1670      C1671   1.400       .  A
C1670      H1675   1.084       .  S
C1671      C1672   1.409       .  A
C1672      C1673   1.402       .  A
C1673      C1674   1.401       .  A
C1673      H1677   1.084       .  S
C1674      O1678   1.371       .  S
O1676      H1680   0.992       .  S
O1678      H1679   0.992       .  S
