geometry optimzed in LAMMPS
_audit_creation_date              2020-11-30 
_audit_creation_method            'lammps2cif' 
_symmetry_space_group_name_H-M    'P1' 
_symmetry_Int_Tables_number       1 
_symmetry_cell_setting            triclinic 
loop_ 
_symmetry_equiv_pos_as_xyz 
  x,y,z 
_cell_length_a                    107.26517642 
_cell_length_b                    107.07310558443108 
_cell_length_c                    107.1030353316423 
_cell_angle_alpha                 90.19871015583196 
_cell_angle_beta                  89.92770207987284 
_cell_angle_gamma                 90.13550736606007 
loop_ 
_atom_site_label 
_atom_site_type_symbol 
_atom_site_fract_x 
_atom_site_fract_y 
_atom_site_fract_z 
_atom_site_charge 
N1          N  0.47499601  0.36536118  0.99598087    -0.27300
N2          N  0.48159515  0.37561193  0.99413822    -0.35200
C3          C  0.47387497  0.38538328  0.99296345     0.01000
C4          C  0.46169722  0.38116783  0.99410593     0.07000
C5          C  0.46280125  0.36837597  0.99605346    -0.06100
H6          H  0.47700307  0.39487421  0.99151485     0.07700
H7          H  0.45532299  0.36170183  0.99728216     0.08900
Cu8        Cu  0.50080537  0.37597219  0.99358258     0.44200
Cu9        Cu  0.48334430  0.34789565  0.99802156     0.42000
Cu10       Cu  0.51776810  0.34733694  0.99811470     0.43900
N11         N  0.51996782  0.37512538  0.99471011    -0.34700
N12         N  0.52637954  0.36478782  0.99659039    -0.29000
C13         C  0.53859831  0.36773959  0.99721100    -0.05100
C14         C  0.53988760  0.38056575  0.99557536     0.07100
C15         C  0.52781958  0.38486089  0.99404414     0.00900
H16         H  0.54596613  0.36102367  0.99865378     0.08600
H17         H  0.52483084  0.39440352  0.99275152     0.07700
N18         N  0.50642580  0.33145498  0.99900334    -0.36200
N19         N  0.49408792  0.33168252  0.99908540    -0.28400
C20         C  0.48977933  0.31987654  0.99971919    -0.03600
C21         C  0.49983926  0.31173848  0.00001550     0.05000
C22         C  0.51023767  0.31948748  0.99953126     0.03100
H23         H  0.47999218  0.31743551  0.99978530     0.08200
H24         H  0.51991381  0.31668241  0.99964855     0.07000
N25         N  0.50018583  0.13913771  0.97775570    -0.27300
N26         N  0.50072809  0.12874548  0.98432381    -0.35200
C27         C  0.50125904  0.11890995  0.97653900     0.01000
C28         C  0.50101583  0.12321557  0.96434738     0.07000
C29         C  0.50033515  0.13615018  0.96551220    -0.06100
H30         H  0.50143303  0.10931059  0.97962739     0.07700
H31         H  0.49985929  0.14290675  0.95804950     0.08900
Cu32       Cu  0.49997032  0.12825000  0.00357534     0.44200
Cu33       Cu  0.49879040  0.15665035  0.98628210     0.42000
Cu34       Cu  0.49585485  0.15677808  0.02082534     0.43900
N35         N  0.49827591  0.12887987  0.02276798    -0.34700
N36         N  0.49666508  0.13921646  0.02932464    -0.29000
C37         C  0.49585670  0.13616925  0.04152208    -0.05100
C38         C  0.49699901  0.12325740  0.04265585     0.07100
C39         C  0.49853178  0.11905140  0.03049061     0.00900
H40         H  0.49451104  0.14287475  0.04897063     0.08600
H41         H  0.49981495  0.10954234  0.02734067     0.07700
N42         N  0.49621365  0.17279525  0.00964110    -0.36200
N43         N  0.49731055  0.17271297  0.99732699    -0.28400
C44         C  0.49758837  0.18458175  0.99321834    -0.03600
C45         C  0.49665299  0.19263908  0.00337693     0.05000
C46         C  0.49577423  0.18474040  0.01362591     0.03100
H47         H  0.49861683  0.18709061  0.98350353     0.08200
H48         H  0.49498454  0.18741748  0.02333522     0.07000
N49         N  0.52621203  0.00037594  0.36519282    -0.27300
N50         N  0.51953924  0.00090244  0.37554155    -0.35200
C51         C  0.52721617  0.00165604  0.38539951     0.01000
C52         C  0.53942348  0.00161164  0.38112488     0.07000
C53         C  0.53839987  0.00075361  0.36821124    -0.06100
H54         H  0.52405166  0.00206566  0.39497936     0.07700
H55         H  0.54591613  0.00056549  0.36147569     0.08900
Cu56       Cu  0.50030190  0.00033096  0.37587333     0.44200
Cu57       Cu  0.51797262  0.99930863  0.34765425     0.42000
Cu58       Cu  0.48361429  0.99708989  0.34688941     0.43900
N59         N  0.48116553  0.99854633  0.37479889    -0.34700
N60         N  0.47488313  0.99728584  0.36427015    -0.29000
C61         C  0.46266578  0.99608228  0.36699411    -0.05100
C62         C  0.46124117  0.99653526  0.37988764     0.07100
C63         C  0.47321150  0.99814602  0.38446225     0.00900
H64         H  0.45541776  0.99476513  0.36010075     0.08600
H65         H  0.47602589  0.99899987  0.39411845     0.07700
N66         N  0.49501915  0.99767229  0.33113225    -0.36200
N67         N  0.50732079  0.99850917  0.33144744    -0.28400
C68         C  0.51169825  0.99888103  0.31968516    -0.03600
C69         C  0.50171440  0.99824787  0.31146929     0.05000
C70         C  0.49128466  0.99748181  0.31914086     0.03100
H71         H  0.52148048  0.99966047  0.31737547     0.08200
H72         H  0.48163807  0.99685026  0.31629574     0.07000
N73         N  0.50205502  0.97470474  0.13885963    -0.27300
N74         N  0.50023899  0.98145012  0.12873281    -0.35200
C75         C  0.50012907  0.97393538  0.11869076     0.01000
C76         C  0.50195853  0.96173322  0.12255900     0.07000
C77         C  0.50311994  0.96260078  0.13547956    -0.06100
H78         H  0.49869148  0.97722311  0.10927370     0.07700
H79         H  0.50470125  0.95504352  0.14195415     0.08900
Cu80       Cu  0.49812133  0.00061684  0.12873847     0.44200
Cu81       Cu  0.50296704  0.98284520  0.15656583     0.42000
Cu82       Cu  0.50145108  0.01752266  0.15728875     0.43900
N83         N  0.49743050  0.01986967  0.12973267    -0.34700
N84         N  0.49889075  0.02630554  0.14015948    -0.29000
C85         C  0.49854350  0.03859177  0.13745256    -0.05100
C86         C  0.49676234  0.03993259  0.12465264     0.07100
C87         C  0.49609156  0.02778414  0.12014883     0.00900
H88         H  0.49961525  0.04595478  0.14430379     0.08600
H89         H  0.49504898  0.02478911  0.11056022     0.07700
N90         N  0.50289124  0.00613438  0.17296343    -0.36200
N91         N  0.50334299  0.99378365  0.17273926    -0.28400
C92         C  0.50382598  0.98956864  0.18455434    -0.03600
C93         C  0.50366482  0.99971203  0.19268270     0.05000
C94         C  0.50308774  0.01004866  0.18490971     0.03100
H95         H  0.50412415  0.97978149  0.18697099     0.08200
H96         H  0.50269172  0.01976365  0.18765082     0.07000
N97         N  0.50135253  0.86457689  0.97241559    -0.27300
N98         N  0.50079823  0.87503722  0.97896010    -0.35200
C99         C  0.50032281  0.88478872  0.97114503     0.01000
C100        C  0.50058554  0.88037452  0.95896459     0.07000
C101        C  0.50120661  0.86744919  0.96015528    -0.06100
H102        H  0.49966253  0.89439391  0.97421300     0.07700
H103        H  0.50158898  0.86062754  0.95269576     0.08900
Cu104      Cu  0.50061101  0.87586699  0.99824987     0.44200
Cu105      Cu  0.50213772  0.84709484  0.98097107     0.42000
Cu106      Cu  0.50126678  0.84739102  0.01554990     0.43900
N107        N  0.50070229  0.87533442  0.01754656    -0.34700
N108        N  0.50102884  0.86489815  0.02406093    -0.29000
C109        C  0.50114288  0.86779723  0.03631584    -0.05100
C110        C  0.50082520  0.88072582  0.03756803     0.07100
C111        C  0.50056343  0.88512934  0.02540511     0.00900
H112        H  0.50134859  0.86096931  0.04372704     0.08600
H113        H  0.50043374  0.89475199  0.02238693     0.07700
N114        N  0.50158586  0.83130978  0.00455609    -0.36200
N115        N  0.50210855  0.83117629  0.99220571    -0.28400
C116        C  0.50232994  0.81922910  0.98824923    -0.03600
C117        C  0.50186008  0.81142413  0.99856287     0.05000
C118        C  0.50137972  0.81946943  0.00872764     0.03100
H119        H  0.50261254  0.81646764  0.97853124     0.08200
H120        H  0.50103567  0.81695135  0.01849193     0.07000
N121        N  0.47396701  0.63959994  0.99687294    -0.27300
N122        N  0.48046029  0.62921263  0.99563687    -0.35200
C123        C  0.47262237  0.61946566  0.99480738     0.01000
C124        C  0.46048986  0.62384573  0.99555841     0.07000
C125        C  0.46173429  0.63671245  0.99687680    -0.06100
H126        H  0.47564912  0.60987755  0.99396569     0.07700
H127        H  0.45434034  0.64350667  0.99774786     0.08900
Cu128      Cu  0.49968256  0.62853484  0.99568995     0.44200
Cu129      Cu  0.48246352  0.65701271  0.99847510     0.42000
Cu130      Cu  0.51701100  0.65689055  0.99899301     0.43900
N131        N  0.51883246  0.62901422  0.99740706    -0.34700
N132        N  0.52540838  0.63936636  0.99873787    -0.29000
C133        C  0.53753132  0.63631237  0.00000197    -0.05100
C134        C  0.53858648  0.62336917  0.99948641     0.07100
C135        C  0.52648245  0.61913745  0.99779719     0.00900
H136        H  0.54495676  0.64301919  0.00140013     0.08600
H137        H  0.52334351  0.60957452  0.99692828     0.07700
N138        N  0.50596331  0.67288141  0.99890759    -0.36200
N139        N  0.49362218  0.67294022  0.99892739    -0.28400
C140        C  0.48963455  0.68485033  0.99887152    -0.03600
C141        C  0.49992889  0.69271140  0.99873026     0.05000
C142        C  0.51010531  0.68474627  0.99876010     0.03100
H143        H  0.47992450  0.68754251  0.99870564     0.08200
H144        H  0.51985524  0.68733912  0.99877106     0.07000
N145        N  0.86258739  0.50414250  0.97262073    -0.27300
N146        N  0.87289163  0.50282970  0.97921313    -0.35200
C147        C  0.88275238  0.50285716  0.97151018     0.01000
C148        C  0.87854213  0.50425019  0.95938090     0.07000
C149        C  0.86565164  0.50498480  0.96043870    -0.06100
H150        H  0.89229433  0.50189091  0.97459783     0.07700
H151        H  0.85900485  0.50625047  0.95296627     0.08900
Cu152      Cu  0.87338377  0.50147726  0.99841672     0.44200
Cu153      Cu  0.84509310  0.50483991  0.98098495     0.42000
Cu154      Cu  0.84481830  0.50312669  0.01551438     0.43900
N155        N  0.87266858  0.50185238  0.01766768    -0.34700
N156        N  0.86221342  0.50270999  0.02412872    -0.29000
C157        C  0.86504159  0.50342365  0.03637054    -0.05100
C158        C  0.87792621  0.50292154  0.03763763     0.07100
C159        C  0.88239603  0.50191908  0.02553748     0.00900
H160        H  0.85821780  0.50424042  0.04376859     0.08600
H161        H  0.89203304  0.50160417  0.02257866     0.07700
N162        N  0.82896643  0.50375670  0.00430276    -0.36200
N163        N  0.82908631  0.50450467  0.99197568    -0.28400
C164        C  0.81727125  0.50476792  0.98780575    -0.03600
C165        C  0.80923240  0.50413468  0.99795621     0.05000
C166        C  0.81705937  0.50350198  0.00825750     0.03100
H167        H  0.81480852  0.50531222  0.97804114     0.08200
H168        H  0.81438423  0.50290116  0.01796994     0.07000
N169        N  0.63756278  0.52829902  0.00246295    -0.27300
N170        N  0.62737111  0.52167351  0.00451783    -0.35200
C171        C  0.61766803  0.52942351  0.00605598     0.01000
C172        C  0.62188326  0.54159109  0.00483465     0.07000
C173        C  0.63457541  0.54051497  0.00251963    -0.06100
H174        H  0.60816647  0.52636147  0.00754169     0.07700
H175        H  0.64116090  0.54802713  0.00101257     0.08900
Cu176      Cu  0.62686331  0.50239715  0.00415956     0.44200
Cu177      Cu  0.65487432  0.52000979  0.99979221     0.42000
Cu178      Cu  0.65531134  0.48552528  0.99917443     0.43900
N179        N  0.62756100  0.48327989  0.00166536    -0.34700
N180        N  0.63794620  0.47691763  0.99988154    -0.29000
C181        C  0.63505436  0.46475484  0.99834554    -0.05100
C182        C  0.62218867  0.46345663  0.99910376     0.07100
C183        C  0.61780477  0.47543249  0.00123342     0.00900
H184        H  0.64180303  0.45747063  0.99657460     0.08600
H185        H  0.60822158  0.47830468  0.00245119     0.07700
N186        N  0.67106514  0.49683947  0.99837365    -0.36200
N187        N  0.67090732  0.50919056  0.99849195    -0.28400
C188        C  0.68270223  0.51344697  0.99801354    -0.03600
C189        C  0.69074846  0.50331539  0.99758260     0.05000
C190        C  0.68295919  0.49294404  0.99781565     0.03100
H191        H  0.68515905  0.52324215  0.99816761     0.08200
H192        H  0.68564933  0.48322325  0.99766136     0.07000
N193        N  0.99945035  0.47450503  0.36278195    -0.27300
N194        N  0.00058165  0.48122483  0.37308486    -0.35200
C195        C  0.00077080  0.47363165  0.38300333     0.01000
C196        C  0.99969406  0.46141433  0.37889064     0.07000
C197        C  0.99881125  0.46231953  0.36595737    -0.06100
H198        H  0.00145770  0.47687319  0.39255172     0.07700
H199        H  0.99792426  0.45470869  0.35934877     0.08900
Cu200      Cu  0.00163887  0.50045065  0.37365233     0.44200
Cu201      Cu  0.99908876  0.48286287  0.34516203     0.42000
Cu202      Cu  0.00124814  0.51773853  0.34560332     0.43900
N203        N  0.00222589  0.51970330  0.37343676    -0.34700
N204        N  0.00212644  0.52634960  0.36309150    -0.29000
C205        C  0.00255950  0.53857549  0.36616981    -0.05100
C206        C  0.00289634  0.53963233  0.37913403     0.07100
C207        C  0.00268842  0.52739726  0.38333984     0.00900
H208        H  0.00251308  0.54609951  0.35946182     0.08600
H209        H  0.00295377  0.52420465  0.39289856     0.07700
N210        N  0.00021974  0.50663492  0.32956797    -0.36200
N211        N  0.99942226  0.49429103  0.32934547    -0.28400
C212        C  0.99901318  0.49043848  0.31736290    -0.03600
C213        C  0.99958859  0.50080974  0.30960470     0.05000
C214        C  0.00033580  0.51088749  0.31776591     0.03100
H215        H  0.99841854  0.48074347  0.31457386     0.08200
H216        H  0.00094565  0.52067177  0.31539189     0.07000
N217        N  0.97214861  0.50746121  0.13761293    -0.27300
N218        N  0.97875526  0.50734205  0.12719651    -0.35200
C219        C  0.97103654  0.50796898  0.11737720     0.01000
C220        C  0.95887620  0.50848675  0.12170894     0.07000
C221        C  0.95994544  0.50810548  0.13464092    -0.06100
H222        H  0.97412270  0.50776964  0.10776361     0.07700
H223        H  0.95244341  0.50830630  0.14139475     0.08900
Cu224      Cu  0.99796347  0.50595078  0.12645558     0.44200
Cu225      Cu  0.98049756  0.50660398  0.15516928     0.42000
Cu226      Cu  0.01502868  0.50442975  0.15485055     0.43900
N227        N  0.01716329  0.50437855  0.12699027    -0.34700
N228        N  0.02364395  0.50385592  0.13743433    -0.29000
C229        C  0.03584913  0.50292739  0.13456103    -0.05100
C230        C  0.03710894  0.50285627  0.12161988     0.07100
C231        C  0.02497771  0.50378956  0.11721300     0.00900
H232        H  0.04321069  0.50236781  0.14141951     0.08600
H233        H  0.02192198  0.50408291  0.10760977     0.07700
N234        N  0.00401869  0.50480299  0.17087720    -0.36200
N235        N  0.99170522  0.50553867  0.17104957    -0.28400
C236        C  0.98779493  0.50543754  0.18300122    -0.03600
C237        C  0.99811411  0.50460751  0.19078757     0.05000
C238        C  0.00821640  0.50422629  0.18268457     0.03100
H239        H  0.97810957  0.50597155  0.18574951     0.08200
H240        H  0.01796587  0.50348347  0.18510260     0.07000
N241        N  0.36210527  0.52783694  0.99284118    -0.27300
N242        N  0.37252777  0.52131049  0.99269721    -0.35200
C243        C  0.38230723  0.52912968  0.99275393     0.01000
C244        C  0.37793925  0.54130808  0.99294116     0.07000
C245        C  0.36501698  0.54009063  0.99298543    -0.06100
H246        H  0.39188569  0.52603174  0.99283363     0.07700
H247        H  0.35820114  0.54750880  0.99321510     0.08900
Cu248      Cu  0.37328308  0.50206613  0.99276832     0.44200
Cu249      Cu  0.34463505  0.51932020  0.99336774     0.42000
Cu250      Cu  0.34515498  0.48467210  0.99513678     0.43900
N251        N  0.37286041  0.48281217  0.99299757    -0.34700
N252        N  0.36252658  0.47617650  0.99394874    -0.29000
C253        C  0.36549417  0.46394664  0.99376755    -0.05100
C254        C  0.37836418  0.46287882  0.99257805     0.07100
C255        C  0.38265212  0.47509403  0.99216201     0.00900
H256        H  0.35875902  0.45643523  0.99429698     0.08600
H257        H  0.39220029  0.47825385  0.99139789     0.07700
N258        N  0.32917196  0.49562496  0.99570016    -0.36200
N259        N  0.32891099  0.50795519  0.99495946    -0.28400
C260        C  0.31697772  0.51177421  0.99556475    -0.03600
C261        C  0.30930134  0.50137094  0.99674916     0.05000
C262        C  0.31744614  0.49132210  0.99679794     0.03100
H263        H  0.31417914  0.52145643  0.99517917     0.08200
H264        H  0.31512144  0.48152725  0.99754639     0.07000
N265        N  0.13781335  0.49945842  0.97571130    -0.27300
N266        N  0.12741688  0.49952026  0.98230032    -0.35200
C267        C  0.11761995  0.49906751  0.97455656     0.01000
C268        C  0.12198528  0.49867206  0.96237714     0.07000
C269        C  0.13489641  0.49897137  0.96349308    -0.06100
H270        H  0.10803699  0.49910658  0.97768355     0.07700
H271        H  0.14169770  0.49874256  0.95603791     0.08900
Cu272      Cu  0.12688247  0.50012528  0.00150486     0.44200
Cu273      Cu  0.15520357  0.49992947  0.98415373     0.42000
Cu274      Cu  0.15526023  0.50133953  0.01888799     0.43900
N275        N  0.12737019  0.50063451  0.02071531    -0.34700
N276        N  0.13771059  0.50099175  0.02738307    -0.29000
C277        C  0.13460804  0.50112433  0.03960502    -0.05100
C278        C  0.12166996  0.50094212  0.04058122     0.07100
C279        C  0.11747682  0.50060450  0.02837378     0.00900
H280        H  0.14125601  0.50150074  0.04718194     0.08600
H281        H  0.10791361  0.50022611  0.02520788     0.07700
N282        N  0.17115954  0.50099611  0.00757688    -0.36200
N283        N  0.17106960  0.50040663  0.99523199    -0.28400
C284        C  0.18287814  0.50003647  0.99103826    -0.03600
C285        C  0.19090662  0.50040641  0.00117985     0.05000
C286        C  0.18307300  0.50103636  0.01150916     0.03100
H287        H  0.18533575  0.49945356  0.98126459     0.08200
H288        H  0.18575287  0.50140846  0.02122794     0.07000
N289        N  0.97619683  0.50649386  0.86277511    -0.27300
N290        N  0.98261415  0.50677140  0.87327535    -0.35200
C291        C  0.97471551  0.50685415  0.88298773     0.01000
C292        C  0.96261349  0.50664870  0.87846479     0.07000
C293        C  0.96394361  0.50638895  0.86554850    -0.06100
H294        H  0.97768476  0.50696360  0.89262714     0.07700
H295        H  0.95659821  0.50625212  0.85864527     0.08900
Cu296      Cu  0.00180296  0.50694165  0.87409690     0.44200
Cu297      Cu  0.98484695  0.50637013  0.84540140     0.42000
Cu298      Cu  0.01934999  0.50550313  0.84573892     0.43900
N299        N  0.02098453  0.50618467  0.87361450    -0.34700
N300        N  0.02761387  0.50545819  0.86325145    -0.29000
C301        C  0.03976991  0.50462257  0.86627344    -0.05100
C302        C  0.04079851  0.50488070  0.87920668     0.07100
C303        C  0.02864631  0.50587807  0.88348222     0.00900
H304        H  0.04725025  0.50386373  0.85953768     0.08600
H305        H  0.02547082  0.50605426  0.89306400     0.07700
N306        N  0.00845656  0.50596361  0.82973061    -0.36200
N307        N  0.99612810  0.50627250  0.82959760    -0.28400
C308        C  0.99221431  0.50644064  0.81767957    -0.03600
C309        C  0.00254998  0.50622657  0.80987831     0.05000
C310        C  0.01267731  0.50594008  0.81790840     0.03100
H311        H  0.98251466  0.50674448  0.81497040     0.08200
H312        H  0.02244111  0.50558955  0.81541919     0.07000
N313        N  0.99785111  0.47819740  0.63862273    -0.27300
N314        N  0.99729111  0.48467541  0.62818082    -0.35200
C315        C  0.99669909  0.47679705  0.61843572     0.01000
C316        C  0.99688482  0.46463724  0.62286397     0.07000
C317        C  0.99761233  0.46593232  0.63577608    -0.06100
H318        H  0.99621696  0.47983650  0.60883958     0.07700
H319        H  0.99803201  0.45856051  0.64263264     0.08900
Cu320      Cu  0.99759358  0.50393642  0.62744197     0.44200
Cu321      Cu  0.99910585  0.48677274  0.65602467     0.42000
Cu322      Cu  0.00084742  0.52139990  0.65565730     0.43900
N323        N  0.99870366  0.52318292  0.62788159    -0.34700
N324        N  0.00006410  0.52980543  0.63820393    -0.29000
C325        C  0.00074332  0.54200064  0.63517554    -0.05100
C326        C  0.99972012  0.54307878  0.62227253     0.07100
C327        C  0.99844942  0.53088497  0.61804116     0.00900
H328        H  0.00185822  0.54948066  0.64189260     0.08600
H329        H  0.99758774  0.52770209  0.60849437     0.07700
N330        N  0.00090934  0.51043705  0.67165285    -0.36200
N331        N  0.00036634  0.49808579  0.67180598    -0.28400
C332        C  0.00063168  0.49418755  0.68372951    -0.03600
C333        C  0.00131911  0.50455683  0.69148761     0.05000
C334        C  0.00146819  0.51468145  0.68346612     0.03100
H335        H  0.00018456  0.48449461  0.68650458     0.08200
H336        H  0.00206264  0.52445623  0.68597463     0.07000
N337        N  0.02722828  0.86560510  0.49970748    -0.27300
N338        N  0.02068338  0.87599693  0.50045954    -0.35200
C339        C  0.02846191  0.88581340  0.50076521     0.01000
C340        C  0.04059683  0.88144761  0.50017043     0.07000
C341        C  0.03944388  0.86853613  0.49954955    -0.06100
H342        H  0.02541802  0.89541317  0.50141289     0.07700
H343        H  0.04688091  0.86177096  0.49881087     0.08900
Cu344      Cu  0.00149237  0.87642726  0.50081187     0.44200
Cu345      Cu  0.01873604  0.84821272  0.49871493     0.42000
Cu346      Cu  0.98412049  0.84782283  0.49902715     0.43900
N347        N  0.98230455  0.87570756  0.50085106    -0.34700
N348        N  0.97569512  0.86531498  0.50015171    -0.29000
C349        C  0.96348604  0.86829574  0.50034221    -0.05100
C350        C  0.96241868  0.88122059  0.50124737     0.07100
C351        C  0.97460351  0.88552379  0.50151319     0.00900
H352        H  0.95598965  0.86153810  0.49992278     0.08600
H353        H  0.97777006  0.89510326  0.50199718     0.07700
N354        N  0.99543843  0.83202277  0.49825515    -0.36200
N355        N  0.00777296  0.83222599  0.49810853    -0.28400
C356        C  0.01203134  0.82043657  0.49777385    -0.03600
C357        C  0.00193895  0.81231949  0.49772837     0.05000
C358        C  0.99156842  0.82006169  0.49803117     0.03100
H359        H  0.02181384  0.81803545  0.49777685     0.08200
H360        H  0.98187462  0.81728094  0.49812333     0.07000
N361        N  0.00509083  0.64083446  0.52561306    -0.27300
N362        N  0.00769038  0.63061466  0.51920057    -0.35200
C363        C  0.00836381  0.62089195  0.52703785     0.01000
C364        C  0.00602679  0.62507855  0.53908940     0.07000
C365        C  0.00403733  0.63784948  0.53779030    -0.06100
H366        H  0.01022634  0.61143578  0.52402620     0.07700
H367        H  0.00172616  0.64446819  0.54507508     0.08900
Cu368      Cu  0.00930187  0.62994469  0.49995879     0.44200
Cu369      Cu  0.00283259  0.65809537  0.51700772     0.42000
Cu370      Cu  0.00423780  0.65770826  0.48237660     0.43900
N371        N  0.00881648  0.63015086  0.48064886    -0.34700
N372        N  0.00664805  0.64027230  0.47399428    -0.29000
C373        C  0.00633559  0.63708243  0.46179866    -0.05100
C374        C  0.00850379  0.62431890  0.46076365     0.07100
C375        C  0.01001724  0.62030258  0.47295238     0.00900
H376        H  0.00468126  0.64357634  0.45427056     0.08600
H377        H  0.01154279  0.61083850  0.47608676     0.07700
N378        N  0.00272437  0.67374647  0.49338048    -0.36200
N379        N  0.00213721  0.67389264  0.50572357    -0.28400
C380        C  0.00167192  0.68582595  0.50967864    -0.03600
C381        C  0.00202976  0.69364893  0.49936747     0.05000
C382        C  0.00266507  0.68557977  0.48920836     0.03100
H383        H  0.00131583  0.68853116  0.51940509     0.08200
H384        H  0.00332787  0.68804768  0.47945280     0.07000
N385        N  0.49467883  0.97731866  0.86184981    -0.27300
N386        N  0.49334243  0.98360000  0.87238901    -0.35200
C387        C  0.49294196  0.97556173  0.88196837     0.01000
C388        C  0.49408368  0.96351489  0.87732169     0.07000
C389        C  0.49520764  0.96501916  0.86447165    -0.06100
H390        H  0.49209889  0.97838257  0.89163437     0.07700
H391        H  0.49625507  0.95774334  0.85752360     0.08900
Cu392      Cu  0.49253004  0.00285760  0.87337973     0.44200
Cu393      Cu  0.49568756  0.98633897  0.84467300     0.42000
Cu394      Cu  0.49537975  0.02105268  0.84541117     0.43900
N395        N  0.49304931  0.02214893  0.87332329    -0.34700
N396        N  0.49422792  0.02902397  0.86317858    -0.29000
C397        C  0.49480742  0.04115383  0.86658919    -0.05100
C398        C  0.49393790  0.04191632  0.87954147     0.07100
C399        C  0.49282978  0.02961615  0.88340053     0.00900
H400        H  0.49588700  0.04880145  0.86010749     0.08600
H401        H  0.49223782  0.02619687  0.89286592     0.07700
N402        N  0.49637662  0.01017446  0.82922749    -0.36200
N403        N  0.49639431  0.99780963  0.82900159    -0.28400
C404        C  0.49691286  0.99390869  0.81706091    -0.03600
C405        C  0.49727680  0.00426271  0.80932182     0.05000
C406        C  0.49693792  0.01441035  0.81741661     0.03100
H407        H  0.49708569  0.98419406  0.81427746     0.08200
H408        H  0.49690171  0.02419357  0.81494459     0.07000
N409        N  0.52405233  0.00597498  0.63749123    -0.27300
N410        N  0.51778944  0.00690843  0.62693382    -0.35200
C411        C  0.52584096  0.00713577  0.61734467     0.01000
C412        C  0.53785624  0.00633338  0.62202794     0.07000
C413        C  0.53632674  0.00557650  0.63488416    -0.06100
H414        H  0.52303973  0.00778768  0.60767858     0.07700
H415        H  0.54355867  0.00494761  0.64187518     0.08900
Cu416      Cu  0.49860584  0.00791464  0.62586165     0.44200
Cu417      Cu  0.51538072  0.00549786  0.65482312     0.42000
Cu418      Cu  0.48129184  0.00637723  0.65466322     0.43900
N419        N  0.47938413  0.00835896  0.62671567    -0.34700
N420        N  0.47294129  0.00761313  0.63720450    -0.29000
C421        C  0.46069890  0.00780232  0.63446443    -0.05100
C422        C  0.45938599  0.00878042  0.62161178     0.07100
C423        C  0.47147353  0.00910462  0.61704562     0.00900
H424        H  0.45333422  0.00729785  0.64134986     0.08600
H425        H  0.47437887  0.00955649  0.60738520     0.07700
N426        N  0.49207120  0.00564320  0.67077661    -0.36200
N427        N  0.50439087  0.00536810  0.67080358    -0.28400
C428        C  0.50842797  0.00511118  0.68267769    -0.03600
C429        C  0.49817629  0.00522890  0.69060431     0.05000
C430        C  0.48796078  0.00555696  0.68265067     0.03100
H431        H  0.51816037  0.00484469  0.68526367     0.08200
H432        H  0.47821928  0.00585263  0.68522913     0.07000
N433        N  0.86329848  0.97645754  0.50335570    -0.27300
N434        N  0.87358923  0.98322424  0.50389376    -0.35200
C435        C  0.88352995  0.97566657  0.50333286     0.01000
C436        C  0.87938159  0.96344288  0.50238561     0.07000
C437        C  0.86645328  0.96430706  0.50249209    -0.06100
H438        H  0.89307709  0.97892333  0.50355020     0.07700
H439        H  0.85982078  0.95672199  0.50171752     0.08900
Cu440      Cu  0.87384324  0.00245906  0.50445537     0.44200
Cu441      Cu  0.84566322  0.98455637  0.50330539     0.42000
Cu442      Cu  0.84500782  0.01902504  0.50162207     0.43900
N443        N  0.87284712  0.02155102  0.50235737    -0.34700
N444        N  0.86234175  0.02780288  0.50107960    -0.29000
C445        C  0.86507754  0.03996869  0.49936608    -0.05100
C446        C  0.87797567  0.04141627  0.49956201     0.07100
C447        C  0.88251255  0.02946147  0.50149857     0.00900
H448        H  0.85815786  0.04716103  0.49802115     0.08600
H449        H  0.89212859  0.02655973  0.50214675     0.07700
N450        N  0.82926218  0.00765087  0.50278910    -0.36200
N451        N  0.82949068  0.99530967  0.50335141    -0.28400
C452        C  0.81771244  0.99102397  0.50413749    -0.03600
C453        C  0.80961033  0.00111827  0.50411410     0.05000
C454        C  0.81733770  0.01150060  0.50323485     0.03100
H455        H  0.81529823  0.98124207  0.50483343     0.08200
H456        H  0.81456042  0.02119238  0.50288506     0.07000
N457        N  0.63763498  0.00352757  0.52835547    -0.27300
N458        N  0.62727904  0.00434024  0.52177570    -0.35200
C459        C  0.61751571  0.00530587  0.52954857     0.01000
C460        C  0.62188713  0.00507835  0.54170367     0.07000
C461        C  0.63472617  0.00388722  0.54058635    -0.06100
H462        H  0.60793674  0.00602327  0.52650443     0.07700
H463        H  0.64147848  0.00352673  0.54806572     0.08900
Cu464      Cu  0.62687806  0.00431776  0.50255644     0.44200
Cu465      Cu  0.65501352  0.00241763  0.51991622     0.42000
Cu466      Cu  0.65569632  0.00301524  0.48533217     0.43900
N467        N  0.62776949  0.00473938  0.48335544    -0.34700
N468        N  0.63818772  0.00426188  0.47679296    -0.29000
C469        C  0.63524617  0.00468755  0.46455057    -0.05100
C470        C  0.62233214  0.00549858  0.46341192     0.07100
C471        C  0.61800121  0.00548956  0.47560453     0.00900
H472        H  0.64202232  0.00441862  0.45707362     0.08600
H473        H  0.60843222  0.00582624  0.47875320     0.07700
N474        N  0.67148310  0.00211597  0.49680557    -0.36200
N475        N  0.67112070  0.00198622  0.50915912    -0.28400
C476        C  0.68282551  0.00161771  0.51360941    -0.03600
C477        C  0.69107409  0.00147295  0.50364115     0.05000
C478        C  0.68349787  0.00177650  0.49312339     0.03100
H479        H  0.68509397  0.00138889  0.52343933     0.08200
H480        H  0.68646516  0.00192194  0.48347234     0.07000
N481        N  0.36176129  0.99958217  0.52622909    -0.27300
N482        N  0.37199857  0.99692513  0.51992456    -0.35200
C483        C  0.38167218  0.99645440  0.52783038     0.01000
C484        C  0.37737626  0.99896937  0.53978611     0.07000
C485        C  0.36464728  0.00085397  0.53840193    -0.06100
H486        H  0.39116174  0.99461589  0.52496501     0.07700
H487        H  0.35802909  0.00336524  0.54560517     0.08900
Cu488      Cu  0.37257171  0.99506525  0.50075328     0.44200
Cu489      Cu  0.34468217  0.00177288  0.51746732     0.42000
Cu490      Cu  0.34455978  0.00025687  0.48300166     0.43900
N491        N  0.37211291  0.99543081  0.48149771    -0.34700
N492        N  0.36199995  0.99752480  0.47481844    -0.29000
C493        C  0.36515853  0.99757461  0.46263033    -0.05100
C494        C  0.37791312  0.99540782  0.46161097     0.07100
C495        C  0.38192251  0.99409347  0.47384072     0.00900
H496        H  0.35863301  0.99916943  0.45512238     0.08600
H497        H  0.39129794  0.99240844  0.47709265     0.07700
N498        N  0.32866552  0.00206249  0.49411223    -0.36200
N499        N  0.32881354  0.00264468  0.50644940    -0.28400
C500        C  0.31705090  0.00347493  0.51068091    -0.03600
C501        C  0.30898117  0.00340624  0.50057015     0.05000
C502        C  0.31674824  0.00250344  0.49020558     0.03100
H503        H  0.31464477  0.00390984  0.52047376     0.08200
H504        H  0.31401057  0.00209289  0.48050314     0.07000
N505        N  0.13802036  0.97782791  0.49601703    -0.27300
N506        N  0.12775835  0.98394424  0.49310652    -0.35200
C507        C  0.11818731  0.97586649  0.49249524     0.01000
C508        C  0.12258078  0.96401457  0.49518583     0.07000
C509        C  0.13523384  0.96564191  0.49738372    -0.06100
H510        H  0.10867121  0.97855169  0.49057068     0.07700
H511        H  0.14194340  0.95853506  0.49981822     0.08900
Cu512      Cu  0.12699012  0.00308916  0.49091586     0.44200
Cu513      Cu  0.15514494  0.98664705  0.49821638     0.42000
Cu514      Cu  0.15494535  0.02088228  0.49642770     0.43900
N515        N  0.12756841  0.02237612  0.49095627    -0.34700
N516        N  0.13771633  0.02902590  0.49314418    -0.29000
C517        C  0.13468952  0.04122564  0.49323999    -0.05100
C518        C  0.12197366  0.04230065  0.49101134     0.07100
C519        C  0.11783790  0.03009426  0.48959951     0.00900
H520        H  0.14126009  0.04869360  0.49501327     0.08600
H521        H  0.10838487  0.02691230  0.48811508     0.07700
N522        N  0.17083102  0.01017788  0.49913375    -0.36200
N523        N  0.17092035  0.99784912  0.49974012    -0.28400
C524        C  0.18274657  0.99395420  0.50111556    -0.03600
C525        C  0.19055857  0.00431646  0.50138286     0.05000
C526        C  0.18258964  0.01443310  0.50011762     0.03100
H527        H  0.18539302  0.98423755  0.50165415     0.08200
H528        H  0.18508044  0.02420933  0.49970498     0.07000
N529        N  0.99546341  0.36413810  0.52863359    -0.27300
N530        N  0.99358288  0.37447419  0.52220760    -0.35200
C531        C  0.99261191  0.38416637  0.53010280     0.01000
C532        C  0.99395676  0.37984332  0.54218689     0.07000
C533        C  0.99580552  0.36705584  0.54089555    -0.06100
H534        H  0.99128250  0.39372050  0.52715725     0.07700
H535        H  0.99719786  0.36035359  0.54829336     0.08900
Cu536      Cu  0.99280825  0.37545725  0.50297911     0.44200
Cu537      Cu  0.99726441  0.34671700  0.52002802     0.42000
Cu538      Cu  0.99640171  0.34745337  0.48551369     0.43900
N539        N  0.99331298  0.37519781  0.48371003    -0.34700
N540        N  0.99481580  0.36488596  0.47710189    -0.29000
C541        C  0.99521203  0.36788574  0.46489774    -0.05100
C542        C  0.99385515  0.38075063  0.46378578     0.07100
C543        C  0.99267267  0.38501539  0.47597130     0.00900
H544        H  0.99641222  0.36117747  0.45742523     0.08600
H545        H  0.99171554  0.39458159  0.47908527     0.07700
N546        N  0.99754417  0.33126681  0.49619396    -0.36200
N547        N  0.99790852  0.33093633  0.50853654    -0.28400
C548        C  0.99846041  0.31893201  0.51221387    -0.03600
C549        C  0.99842776  0.31127257  0.50170327     0.05000
C550        C  0.99784738  0.31951512  0.49174092     0.03100
H551        H  0.99873541  0.31605884  0.52187515     0.08200
H552        H  0.99760990  0.31723221  0.48190726     0.07000
N553        N  0.97347138  0.13962823  0.49700063    -0.27300
N554        N  0.97982930  0.12908672  0.49690662    -0.35200
C555        C  0.97187198  0.11942589  0.49627007     0.01000
C556        C  0.95980766  0.12402329  0.49593868     0.07000
C557        C  0.96120549  0.13692520  0.49646353    -0.06100
H558        H  0.97476114  0.10976103  0.49614644     0.07700
H559        H  0.95389780  0.14386203  0.49629783     0.08900
Cu560      Cu  0.99903731  0.12810833  0.49747473     0.44200
Cu561      Cu  0.98218536  0.15699666  0.49757003     0.42000
Cu562      Cu  0.01657277  0.15661942  0.49857801     0.43900
N563        N  0.01827381  0.12867837  0.49753768    -0.34700
N564        N  0.02486012  0.13909796  0.49790551    -0.29000
C565        C  0.03706452  0.13619250  0.49751109    -0.05100
C566        C  0.03821267  0.12326872  0.49685555     0.07100
C567        C  0.02602888  0.11888540  0.49691539     0.00900
H568        H  0.04449245  0.14303298  0.49757568     0.08600
H569        H  0.02289108  0.10929888  0.49644543     0.07700
N570        N  0.00576523  0.17272605  0.49843922    -0.36200
N571        N  0.99344171  0.17285728  0.49787687    -0.28400
C572        C  0.98954416  0.18478323  0.49753801    -0.03600
C573        C  0.99987564  0.19257801  0.49796765     0.05000
C574        C  0.00999173  0.18456773  0.49856759     0.03100
H575        H  0.97985976  0.18754123  0.49714414     0.08200
H576        H  0.01974977  0.18711729  0.49886806     0.07000
C577        C  0.99876944  0.29735300  0.50116610    -0.03400
C578        C  0.99989673  0.29021509  0.51213709    -0.09200
C579        C  0.00020785  0.27714453  0.51156611    -0.16800
C580        C  0.99939951  0.27098192  0.50004482     0.25300
C581        C  0.99826652  0.27796465  0.48909593    -0.18500
C582        C  0.99795418  0.29101877  0.48963451    -0.07400
C583        C  0.99971281  0.25751504  0.49942841    -0.13900
C584        C  0.99992274  0.24624549  0.49885645    -0.13600
C585        C  0.00007061  0.23277617  0.49829486     0.25200
C586        C  0.01035161  0.22615411  0.50281260    -0.19000
C587        C  0.01036568  0.21308163  0.50257070    -0.07500
C588        C  0.00004086  0.20643821  0.49787872    -0.03500
C589        C  0.98980583  0.21317514  0.49323728    -0.08900
C590        C  0.98984405  0.22624606  0.49341813    -0.16500
H591        H  0.00057260  0.29466725  0.52118683     0.11700
H592        H  0.00108642  0.27184833  0.52012025     0.10900
H593        H  0.99761697  0.27331642  0.48011675     0.10900
H594        H  0.99704145  0.29607722  0.48097109     0.11400
H595        H  0.01832030  0.23109310  0.50662045     0.11500
H596        H  0.01835784  0.20819810  0.50628577     0.11400
H597        H  0.98178009  0.20836651  0.48941562     0.11600
H598        H  0.98185148  0.23125639  0.48984238     0.10400
C599        C  0.04980360  0.11569532  0.49604953    -0.03400
C600        C  0.06166792  0.12137798  0.49635832    -0.09200
C601        C  0.07250707  0.11412704  0.49560323    -0.16800
C602        C  0.07162591  0.10112489  0.49452946     0.25300
C603        C  0.05990542  0.09541223  0.49418959    -0.18500
C604        C  0.04909917  0.10260151  0.49493966    -0.07400
C605        C  0.08260006  0.09344600  0.49377006    -0.13900
C606        C  0.09073230  0.08572213  0.49302447    -0.13600
C607        C  0.09891827  0.07513410  0.49200615     0.25200
C608        C  0.09403057  0.06370405  0.48798245    -0.19000
C609        C  0.10158997  0.05313642  0.48743297    -0.07500
C610        C  0.11421165  0.05378387  0.49096857    -0.03500
C611        C  0.11913112  0.06539963  0.49478649    -0.08900
C612        C  0.11151109  0.07600635  0.49532030    -0.16500
H613        H  0.06263223  0.13139865  0.49720653     0.11700
H614        H  0.08154645  0.11865331  0.49586984     0.10900
H615        H  0.05910878  0.08535155  0.49334590     0.10900
H616        H  0.04023289  0.09780405  0.49462835     0.11400
H617        H  0.08429847  0.06292175  0.48537694     0.11500
H618        H  0.09744235  0.04447174  0.48429371     0.11400
H619        H  0.12877555  0.06628817  0.49758881     0.11600
H620        H  0.11539341  0.08481893  0.49846554     0.10400
C621        C  0.20441394  0.00451455  0.50216459    -0.03400
C622        C  0.21102940  0.01589258  0.50173894    -0.09200
C623        C  0.22406784  0.01603605  0.50195470    -0.16800
C624        C  0.23071485  0.00483752  0.50262500     0.25300
C625        C  0.22425838  0.99349279  0.50327885    -0.18500
C626        C  0.21122052  0.99331651  0.50306383    -0.07400
C627        C  0.24414676  0.00495434  0.50238551    -0.13900
C628        C  0.25539154  0.00490843  0.50202046    -0.13600
C629        C  0.26881844  0.00468069  0.50160072     0.25200
C630        C  0.27568994  0.00573936  0.51263710    -0.19000
C631        C  0.28871387  0.00536666  0.51229743    -0.07500
C632        C  0.29511051  0.00391642  0.50088185    -0.03500
C633        C  0.28808378  0.00290086  0.48981926    -0.08900
C634        C  0.27504340  0.00327981  0.49019159    -0.16500
H635        H  0.20620933  0.02471932  0.50110111     0.11700
H636        H  0.22896418  0.02488437  0.50147169     0.10900
H637        H  0.22930579  0.98475856  0.50383090     0.10900
H638        H  0.20654821  0.98437254  0.50347881     0.11400
H639        H  0.27097795  0.00682795  0.52152849     0.11500
H640        H  0.29369653  0.00623012  0.52102167     0.11400
H641        H  0.29259469  0.00175263  0.48085777     0.11600
H642        H  0.26981749  0.00243608  0.48157814     0.10400
C643        C  0.88543525  0.05305646  0.49806426    -0.03400
C644        C  0.89855330  0.05258959  0.49837581    -0.09200
C645        C  0.90564747  0.06346268  0.49728689    -0.16800
C646        C  0.89982420  0.07502499  0.49584696     0.25300
C647        C  0.88680002  0.07565841  0.49535829    -0.18500
C648        C  0.87963752  0.06474091  0.49645079    -0.07400
C649        C  0.90744258  0.08608742  0.49506203    -0.13900
C650        C  0.91530642  0.09414908  0.49468493    -0.13600
C651        C  0.92621251  0.10201405  0.49446023     0.25200
C652        C  0.92554073  0.11474676  0.49741805    -0.19000
C653        C  0.93643107  0.12201725  0.49773946    -0.07500
C654        C  0.94811534  0.11659479  0.49517086    -0.03500
C655        C  0.94859469  0.10383036  0.49203162    -0.08900
C656        C  0.93774976  0.09662911  0.49169793    -0.16500
H657        H  0.90345298  0.04386942  0.49953182     0.11700
H658        H  0.91572625  0.06285216  0.49765124     0.10900
H659        H  0.88218672  0.08457018  0.49422226     0.10900
H660        H  0.86959366  0.06551019  0.49612644     0.11400
H661        H  0.91665393  0.11900812  0.49962433     0.11500
H662        H  0.93570583  0.13178970  0.50022882     0.11400
H663        H  0.95733518  0.09932460  0.48981754     0.11600
H664        H  0.93838804  0.08678470  0.48939977     0.10400
C665        C  0.70493729  0.00115438  0.50419850    -0.03400
C666        C  0.71202277  0.99807606  0.49355830    -0.09200
C667        C  0.72506343  0.99776862  0.49412319    -0.16800
C668        C  0.73124115  0.00056523  0.50530272     0.25300
C669        C  0.72428780  0.00363707  0.51593886    -0.18500
C670        C  0.71124987  0.00391612  0.51540891    -0.07400
C671        C  0.74469642  0.00040742  0.50580634    -0.13900
C672        C  0.75596361  0.00038734  0.50600820    -0.13600
C673        C  0.76942864  0.00049921  0.50590533     0.25200
C674        C  0.77606170  0.98943535  0.50385870    -0.19000
C675        C  0.78910738  0.98960575  0.50336262    -0.07500
C676        C  0.79574703  0.00087552  0.50488059    -0.03500
C677        C  0.78897554  0.01192941  0.50705812    -0.08900
C678        C  0.77593380  0.01172826  0.50756724    -0.16500
H679        H  0.70752166  0.99579805  0.48480651     0.11700
H680        H  0.73033096  0.99536449  0.48582158     0.10900
H681        H  0.72894260  0.00586218  0.52464168     0.10900
H682        H  0.70616209  0.00643690  0.52376655     0.11400
H683        H  0.77114554  0.98068046  0.50253274     0.11500
H684        H  0.79393456  0.98091823  0.50161072     0.11400
H685        H  0.79370507  0.02076178  0.50839972     0.11600
H686        H  0.77092052  0.02035908  0.50917751     0.10400
C687        C  0.44771212  0.00893548  0.61421522    -0.03400
C688        C  0.44785172  0.01308365  0.60176688    -0.09200
C689        C  0.43705855  0.01256196  0.59451358    -0.16800
C690        C  0.42596360  0.00789046  0.59956155     0.25300
C691        C  0.42561964  0.00402050  0.61202428    -0.18500
C692        C  0.43642200  0.00458147  0.61933536    -0.07400
C693        C  0.41525807  0.00643249  0.59160468    -0.13900
C694        C  0.40739752  0.00501083  0.58369025    -0.13600
C695        C  0.39964704  0.00331427  0.57286141     0.25200
C696        C  0.38675370  0.00152831  0.57394429    -0.19000
C697        C  0.37944431  0.00003461  0.56319743    -0.07500
C698        C  0.38498746  0.00026315  0.55127205    -0.03500
C699        C  0.39796451  0.00195958  0.55035780    -0.08900
C700        C  0.40520467  0.00348416  0.56105675    -0.16500
H701        H  0.45630782  0.01666091  0.59756603     0.11700
H702        H  0.43743053  0.01558416  0.58487300     0.10900
H703        H  0.41708885  0.00033520  0.61600879     0.10900
H704        H  0.43599523  0.00126661  0.62885806     0.11400
H705        H  0.38236020  0.00133240  0.58305434     0.11500
H706        H  0.36950058  0.99865405  0.56423722     0.11400
H707        H  0.40256917  0.00233789  0.54137967     0.11600
H708        H  0.41517373  0.00486954  0.56010975     0.10400
C709        C  0.61431957  0.00592159  0.55324549    -0.03400
C710        C  0.60223317  0.01095854  0.55280535    -0.09200
C711        C  0.59478971  0.01126572  0.56348499    -0.16800
C712        C  0.59927722  0.00654163  0.57476737     0.25300
C713        C  0.61137545  0.00171027  0.57539841    -0.18500
C714        C  0.61889407  0.00144922  0.56469608    -0.07400
C715        C  0.59111388  0.00627433  0.58542117    -0.13900
C716        C  0.58294213  0.00622399  0.59314910    -0.13600
C717        C  0.57183509  0.00643148  0.60067479     0.25200
C718        C  0.57213086  0.00328732  0.61334390    -0.19000
C719        C  0.56110071  0.00330594  0.62036876    -0.07500
C720        C  0.54965389  0.00644059  0.61476614    -0.03500
C721        C  0.54954433  0.00965996  0.60203943    -0.08900
C722        C  0.56053422  0.00964319  0.59507784    -0.16500
H723        H  0.59847972  0.01465948  0.54421177     0.11700
H724        H  0.58544346  0.01504310  0.56289983     0.10900
H725        H  0.61492055  0.99798915  0.58408676     0.10900
H726        H  0.62813507  0.99746576  0.56532030     0.11400
H727        H  0.58084117  0.00075588  0.61776169     0.11500
H728        H  0.56154769  0.00072772  0.63011354     0.11400
H729        H  0.54100424  0.01226983  0.59739205     0.11600
H730        H  0.56020583  0.01210677  0.58527618     0.10400
C731        C  0.49817419  0.00515942  0.70450871    -0.03400
C732        C  0.48695785  0.00389376  0.71125007    -0.09200
C733        C  0.48699046  0.00385260  0.72432086    -0.16800
C734        C  0.49820948  0.00507739  0.73087449     0.25300
C735        C  0.50940580  0.00634075  0.72428317    -0.18500
C736        C  0.50940425  0.00638168  0.71121970    -0.07400
C737        C  0.49824519  0.00501633  0.74434572    -0.13900
C738        C  0.49827241  0.00492606  0.75562281    -0.13600
C739        C  0.49820191  0.00473743  0.76909365     0.25200
C740        C  0.49495801  0.99379795  0.77544061    -0.19000
C741        C  0.49472946  0.99361909  0.78850247    -0.07500
C742        C  0.49770787  0.00441453  0.79544099    -0.03500
C743        C  0.50101412  0.01535778  0.78896452    -0.08900
C744        C  0.50127290  0.01550058  0.77589309    -0.16500
H745        H  0.47813286  0.00286595  0.70648618     0.11700
H746        H  0.47825647  0.00284933  0.72931489     0.10900
H747        H  0.51815443  0.00730770  0.72924339     0.10900
H748        H  0.51822440  0.00744638  0.70644307     0.11400
H749        H  0.49254178  0.98540914  0.77029032     0.11500
H750        H  0.49204433  0.98505652  0.79312189     0.11400
H751        H  0.50347892  0.02380328  0.79396481     0.11600
H752        H  0.50383373  0.02402140  0.77109296     0.10400
C753        C  0.95094370  0.88897168  0.50166177    -0.03400
C754        C  0.93918365  0.88387841  0.49872993    -0.09200
C755        C  0.92854013  0.89146135  0.49866272    -0.16800
C756        C  0.92952598  0.90419041  0.50156543     0.25300
C757        C  0.94112558  0.90925615  0.50470859    -0.18500
C758        C  0.95172759  0.90173821  0.50478007    -0.07400
C759        C  0.91883925  0.91229540  0.50105961    -0.13900
C760        C  0.91087069  0.92022024  0.50070513    -0.13600
C761        C  0.90263681  0.93082631  0.50046313     0.25200
C762        C  0.90745720  0.94256979  0.49740508    -0.19000
C763        C  0.89983408  0.95311017  0.49783458    -0.07500
C764        C  0.88722362  0.95208563  0.50134156    -0.03500
C765        C  0.88235390  0.94019175  0.50410195    -0.08900
C766        C  0.89003975  0.92962794  0.50370873    -0.16500
H767        H  0.93821402  0.87411778  0.49626729     0.11700
H768        H  0.91959497  0.88743529  0.49620903     0.10900
H769        H  0.94200381  0.91908399  0.50701009     0.10900
H770        H  0.96051830  0.90601520  0.50727887     0.11400
H771        H  0.91718139  0.94361380  0.49484594     0.11500
H772        H  0.90387413  0.96205309  0.49543936     0.11400
H773        H  0.87270914  0.93907591  0.50686426     0.11600
H774        H  0.88620999  0.92057961  0.50611782     0.10400
C775        C  0.05214407  0.88908019  0.49996266    -0.03400
C776        C  0.06383635  0.88376577  0.50261752    -0.09200
C777        C  0.07463878  0.89115673  0.50254373    -0.16800
C778        C  0.07385402  0.90389934  0.49976590     0.25300
C779        C  0.06228800  0.90920377  0.49702715    -0.18500
C780        C  0.05152543  0.90188127  0.49712790    -0.07400
C781        C  0.08475074  0.91175482  0.49967128    -0.13900
C782        C  0.09270361  0.91970558  0.49911733    -0.13600
C783        C  0.10057738  0.93052462  0.49785401     0.25200
C784        C  0.09607602  0.94088409  0.49136888    -0.19000
C785        C  0.10329093  0.95169598  0.49040659    -0.07500
C786        C  0.11516825  0.95232893  0.49592366    -0.03500
C787        C  0.11971332  0.94180293  0.50230523    -0.08900
C788        C  0.11242956  0.93096917  0.50329525    -0.16500
H789        H  0.06463231  0.87396323  0.50489856     0.11700
H790        H  0.08355865  0.88695572  0.50468010     0.10900
H791        H  0.06158151  0.91904555  0.49480844     0.10900
H792        H  0.04275375  0.90628069  0.49486190     0.11400
H793        H  0.08691192  0.94064201  0.48712201     0.11500
H794        H  0.09953887  0.95952991  0.48529928     0.11400
H795        H  0.12877195  0.94199837  0.50673481     0.11600
H796        H  0.11598276  0.92301542  0.50838993     0.10400
C797        C  0.00222498  0.79843022  0.49771196    -0.03400
C798        C  0.99124093  0.79146779  0.49963883    -0.09200
C799        C  0.99156053  0.77841170  0.49983367    -0.16800
C800        C  0.00283584  0.77209544  0.49809952     0.25300
C801        C  0.01380163  0.77890034  0.49609613    -0.18500
C802        C  0.01351288  0.79196078  0.49589872    -0.07400
C803        C  0.00312480  0.75864398  0.49840956    -0.13900
C804        C  0.00315369  0.74737611  0.49867058    -0.13600
C805        C  0.00294402  0.73391735  0.49887719     0.25200
C806        C  0.00218711  0.72717822  0.48769466    -0.19000
C807        C  0.00183711  0.71412003  0.48785120    -0.07500
C808        C  0.00224965  0.70756088  0.49922520    -0.03500
C809        C  0.00299872  0.71445960  0.51043123    -0.08900
C810        C  0.00334628  0.72752771  0.51024268    -0.16500
H811        H  0.98238870  0.79604844  0.50112626     0.11700
H812        H  0.98300637  0.77324127  0.50139002     0.10900
H813        H  0.02258558  0.77411403  0.49470468     0.10900
H814        H  0.02215045  0.79692672  0.49428946     0.11400
H815        H  0.00183410  0.73201991  0.47883535     0.11500
H816        H  0.00119917  0.70922925  0.47902871     0.11400
H817        H  0.00338189  0.70982535  0.51937299     0.11600
H818        H  0.00391988  0.73264463  0.51896957     0.10400
C819        C  0.99372529  0.38752927  0.55374169    -0.03400
C820        C  0.98820546  0.39943517  0.55357702    -0.09200
C821        C  0.98855272  0.40711487  0.56411619    -0.16800
C822        C  0.99440027  0.40306337  0.57502407     0.25300
C823        C  0.99971157  0.39112447  0.57542289    -0.18500
C824        C  0.99932999  0.38336152  0.56484642    -0.07400
C825        C  0.99525555  0.41151553  0.58548809    -0.13900
C826        C  0.99570260  0.41982434  0.59311743    -0.13600
C827        C  0.99601704  0.43091798  0.60076748     0.25200
C828        C  0.99617832  0.43017941  0.61381288    -0.19000
C829        C  0.99644271  0.44111498  0.62104750    -0.07500
C830        C  0.99654308  0.45294214  0.61530965    -0.03500
C831        C  0.99634531  0.45350793  0.60217229    -0.08900
C832        C  0.99608317  0.44260533  0.59499838    -0.16500
H833        H  0.98362948  0.40288767  0.54528626     0.11700
H834        H  0.98438934  0.41631680  0.56369518     0.10900
H835        H  0.00429829  0.38789898  0.58381569     0.10900
H836        H  0.00370125  0.37427303  0.56526340     0.11400
H837        H  0.99609780  0.42117288  0.61838907     0.11500
H838        H  0.99655685  0.44025609  0.63110266     0.11400
H839        H  0.99642389  0.46233880  0.59732481     0.11600
H840        H  0.99593687  0.44330116  0.58490629     0.10400
C841        C  0.00007944  0.55457097  0.61449785    -0.03400
C842        C  0.00351681  0.56622665  0.61960791    -0.09200
C843        C  0.00412749  0.57688788  0.61204078    -0.16800
C844        C  0.00127433  0.57603284  0.59930290     0.25300
C845        C  0.99773579  0.56452937  0.59420851    -0.18500
C846        C  0.99712093  0.55391643  0.60170640    -0.07400
C847        C  0.00217105  0.58673163  0.59119905    -0.13900
C848        C  0.00283811  0.59456744  0.58313903    -0.13600
C849        C  0.00365210  0.60243337  0.57225638     0.25200
C850        C  0.00497699  0.59687257  0.56050518    -0.19000
C851        C  0.00577934  0.60422874  0.54979779    -0.07500
C852        C  0.00525935  0.61735153  0.55061161    -0.03500
C853        C  0.00389486  0.62288849  0.56249414    -0.08900
C854        C  0.00309830  0.61546784  0.57324199    -0.16500
H855        H  0.00589377  0.56710977  0.62938363     0.11700
H856        H  0.00691138  0.58574501  0.61609626     0.10900
H857        H  0.99549878  0.56373841  0.58437104     0.10900
H858        H  0.99429731  0.54522437  0.59738945     0.11400
H859        H  0.00537526  0.58679576  0.55960434     0.11500
H860        H  0.00671541  0.59953066  0.54090334     0.11400
H861        H  0.00348490  0.63293021  0.56353202     0.11600
H862        H  0.00205964  0.61989178  0.58229351     0.10400
C863        C  0.00177437  0.50480028  0.70532171    -0.03400
C864        C  0.00529888  0.49411269  0.71204917    -0.09200
C865        C  0.00579040  0.49439422  0.72509529    -0.16800
C866        C  0.00271678  0.50532571  0.73158876     0.25300
C867        C  0.99916086  0.51598923  0.72499018    -0.18500
C868        C  0.99871395  0.51574800  0.71194668    -0.07400
C869        C  0.00308829  0.50556828  0.74501758    -0.13900
C870        C  0.00320829  0.50574211  0.75627178    -0.13600
C871        C  0.00307774  0.50589453  0.76970617     0.25200
C872        C  0.99188760  0.50397730  0.77614155    -0.19000
C873        C  0.99170038  0.50410993  0.78919032    -0.07500
C874        C  0.00273417  0.50615581  0.79601102    -0.03500
C875        C  0.01394767  0.50807856  0.78942750    -0.08900
C876        C  0.01410362  0.50794938  0.77637045    -0.16500
H877        H  0.00781621  0.48557010  0.70725571     0.11700
H878        H  0.00856096  0.48608430  0.73011513     0.10900
H879        H  0.99670735  0.52448660  0.72992653     0.10900
H880        H  0.99583485  0.52409864  0.70708782     0.11400
H881        H  0.98329695  0.50235514  0.77107021     0.11500
H882        H  0.98291331  0.50249558  0.79387938     0.11400
H883        H  0.02260950  0.50977378  0.79430859     0.11600
H884        H  0.02282152  0.50946485  0.77147788     0.10400
C885        C  0.11436712  0.49809487  0.95082404    -0.03400
C886        C  0.10143340  0.49594290  0.95156607    -0.09200
C887        C  0.09412142  0.49578803  0.94081087    -0.16800
C888        C  0.09957510  0.49774323  0.92912344     0.25300
C889        C  0.11244681  0.49969330  0.92820050    -0.18500
C890        C  0.11981776  0.49984870  0.93898600    -0.07400
C891        C  0.09171412  0.49832697  0.91828067    -0.13900
C892        C  0.08392946  0.49930142  0.91024677    -0.13600
C893        C  0.07336952  0.50097855  0.90217770     0.25200
C894        C  0.07410000  0.49832885  0.88938949    -0.19000
C895        C  0.06357024  0.49977753  0.88180366    -0.07500
C896        C  0.05219491  0.50384859  0.88696574    -0.03500
C897        C  0.05168040  0.50666060  0.89980080    -0.08900
C898        C  0.06216899  0.50521356  0.90732232    -0.16500
H899        H  0.09686752  0.49439917  0.96042989     0.11700
H900        H  0.08415735  0.49429008  0.94163219     0.10900
H901        H  0.11675208  0.50127447  0.91918674     0.10900
H902        H  0.12971429  0.50155961  0.93803551     0.11400
H903        H  0.08274669  0.49504982  0.88531365     0.11500
H904        H  0.06430112  0.49749226  0.87198374     0.11400
H905        H  0.04319121  0.50999446  0.90410961     0.11600
H906        H  0.06151815  0.50734595  0.91720176     0.10400
C907        C  0.20478752  0.50005361  0.00098277    -0.03400
C908        C  0.21134349  0.49964597  0.98957555    -0.09200
C909        C  0.22437816  0.49939542  0.98938919    -0.16800
C910        C  0.23109591  0.49954706  0.00057049     0.25300
C911        C  0.22470829  0.49987830  0.01196321    -0.18500
C912        C  0.21166474  0.50012835  0.01218249    -0.07400
C913        C  0.24453081  0.49957196  0.00031832    -0.13900
C914        C  0.25577425  0.49979346  0.99991960    -0.13600
C915        C  0.26919014  0.50020524  0.99925787     0.25200
C916        C  0.27607966  0.48914182  0.99956988    -0.19000
C917        C  0.28909114  0.48951905  0.99879587    -0.07500
C918        C  0.29545034  0.50099796  0.99768288    -0.03500
C919        C  0.28840232  0.51207974  0.99741741    -0.08900
C920        C  0.27538250  0.51166949  0.99819491    -0.16500
H921        H  0.20647796  0.49957416  0.98074579     0.11700
H922        H  0.22921880  0.49914927  0.98050582     0.10900
H923        H  0.22980987  0.50000225  0.02068782     0.10900
H924        H  0.20703689  0.50040574  0.02114976     0.11400
H925        H  0.27139277  0.48020522  0.00038197     0.11500
H926        H  0.29409069  0.48077367  0.99904704     0.11400
H927        H  0.29287738  0.52109487  0.99658000     0.11600
H928        H  0.27014349  0.52030409  0.99793474     0.10400
C929        C  0.04874569  0.50211776  0.11401618    -0.03400
C930        C  0.06058512  0.50146195  0.11968376    -0.09200
C931        C  0.07144967  0.50094186  0.11237827    -0.16800
C932        C  0.07063115  0.50105524  0.09932499     0.25300
C933        C  0.05892753  0.50164301  0.09364068    -0.18500
C934        C  0.04810654  0.50215855  0.10087895    -0.07400
C935        C  0.08163838  0.50070716  0.09155747    -0.13900
C936        C  0.08981587  0.50065970  0.08378432    -0.10000
C937        C  0.09814416  0.50096550  0.07318705     0.25200
C938        C  0.09362657  0.50518050  0.06171235    -0.19000
C939        C  0.10133909  0.50527096  0.05120790    -0.07500
C940        C  0.11376649  0.50116689  0.05197399    -0.03500
C941        C  0.11833509  0.49709174  0.06357780    -0.08900
C942        C  0.11053736  0.49694063  0.07411906    -0.16500
H943        H  0.06150696  0.50140025  0.12973629     0.11700
H944        H  0.08046162  0.50049607  0.11690580     0.10900
H945        H  0.05815348  0.50174346  0.08355266     0.10900
H946        H  0.03927287  0.50262496  0.09607307     0.11400
H947        H  0.08407626  0.50834630  0.06085973     0.11500
H948        H  0.09754061  0.50863751  0.04249645     0.11400
H949        H  0.12782950  0.49380724  0.06445139     0.11600
H950        H  0.11414246  0.49362031  0.08294392     0.10400
C951        C  0.99947698  0.45010509  0.38689329    -0.03400
C952        C  0.99412160  0.43882245  0.38273341    -0.09200
C953        C  0.99337018  0.42848903  0.39074362    -0.16800
C954        C  0.99806022  0.42929833  0.40293843     0.25300
C955        C  0.00363827  0.44039657  0.40700554    -0.18500
C956        C  0.00434529  0.45069382  0.39908103    -0.07400
C957        C  0.99687687  0.41903604  0.41157113    -0.13900
C958        C  0.99603455  0.41141299  0.41982583    -0.13600
C959        C  0.99509895  0.40344570  0.43063759     0.25200
C960        C  0.99045144  0.40832834  0.44184198    -0.19000
C961        C  0.98991683  0.40090978  0.45254295    -0.07500
C962        C  0.99404034  0.38843713  0.45224049    -0.03500
C963        C  0.99855359  0.38354070  0.44088395    -0.08900
C964        C  0.99910854  0.39101274  0.43016955    -0.16500
H965        H  0.99024744  0.43807953  0.37343286     0.11700
H966        H  0.98899831  0.41995187  0.38748740     0.10900
H967        H  0.00733030  0.44114887  0.41639351     0.10900
H968        H  0.00871843  0.45912707  0.40255826     0.11400
H969        H  0.98731793  0.41793176  0.44233932     0.11500
H970        H  0.98624950  0.40499161  0.46103231     0.11400
H971        H  0.00187496  0.37402420  0.44030228     0.11600
H972        H  0.00277486  0.38712976  0.42156740     0.10400
C973        C  0.00872387  0.61639557  0.44933676    -0.03400
C974        C  0.01465025  0.60468523  0.44954474    -0.09200
C975        C  0.01428197  0.59679216  0.43912998    -0.16800
C976        C  0.00797440  0.60041972  0.42831199     0.25300
C977        C  0.00226703  0.61217746  0.42788359    -0.18500
C978        C  0.00268791  0.62015054  0.43830896    -0.07400
C979        C  0.00694234  0.59173649  0.41799632    -0.13900
C980        C  0.00606823  0.58352620  0.41025845    -0.13600
C981        C  0.00498745  0.57270940  0.40221294     0.25200
C982        C  0.00691742  0.57359680  0.38929948    -0.19000
C983        C  0.00611305  0.56289946  0.38171873    -0.07500
C984        C  0.00341212  0.55115215  0.38697208    -0.03500
C985        C  0.00135877  0.55044467  0.39994555    -0.08900
C986        C  0.00215159  0.56110573  0.40746430    -0.16500
H987        H  0.01954105  0.60155447  0.45778633     0.11700
H988        H  0.01875512  0.58774213  0.43959772     0.10900
H989        H  0.99731529  0.61509325  0.41958521     0.10900
H990        H  0.99799072  0.62907193  0.43785172     0.11400
H991        H  0.00913140  0.58252256  0.38510358     0.11500
H992        H  0.00778598  0.56382443  0.37180166     0.11400
H993        H  0.99909917  0.54166922  0.40437516     0.11600
H994        H  0.00060281  0.56027505  0.41742829     0.10400
C995        C  0.99834922  0.50415676  0.20469503    -0.03400
C996        C  0.98720922  0.50326189  0.21162124    -0.09200
C997        C  0.98747670  0.50276691  0.22468345    -0.16800
C998        C  0.99885733  0.50315969  0.23105549     0.25300
C999        C  0.00998036  0.50408926  0.22428106    -0.18500
C1000       C  0.00974362  0.50458337  0.21122541    -0.07400
C1001       C  0.99912222  0.50259861  0.24452414    -0.13900
C1002       C  0.99930504  0.50216355  0.25579878    -0.13600
C1003       C  0.99944484  0.50177736  0.26927829     0.25200
C1004       C  0.99824324  0.49038589  0.27554662    -0.19000
C1005       C  0.99828690  0.49004264  0.28862411    -0.07500
C1006       C  0.99953690  0.50111544  0.29567235    -0.03500
C1007       C  0.00075675  0.51251663  0.28923464    -0.08900
C1008       C  0.00071068  0.51282803  0.27617062    -0.16500
H1009       H  0.97825860  0.50286288  0.20700496     0.11700
H1010       H  0.97879308  0.50204872  0.22981209     0.10900
H1011       H  0.01885580  0.50442930  0.22909100     0.10900
H1012       H  0.01852134  0.50534601  0.20631555     0.11400
H1013       H  0.99724687  0.48175598  0.27032717     0.11500
H1014       H  0.99730710  0.48108506  0.29315160     0.11400
H1015       H  0.00176958  0.52125145  0.29422067     0.11600
H1016       H  0.00165037  0.52171251  0.27144426     0.10400
C1017       C  0.88634881  0.50498217  0.94796688    -0.03400
C1018       C  0.89907864  0.50800864  0.94896180    -0.09200
C1019       C  0.90665080  0.50838574  0.93837900    -0.16800
C1020       C  0.90167398  0.50574324  0.92660808     0.25300
C1021       C  0.88898472  0.50283746  0.92544112    -0.18500
C1022       C  0.88133601  0.50250267  0.93606900    -0.07400
C1023       C  0.90984197  0.50586160  0.91592997    -0.13900
C1024       C  0.91799470  0.50610404  0.90816779    -0.13600
C1025       C  0.92899841  0.50650948  0.90046394     0.25200
C1026       C  0.92837710  0.50423654  0.88759970    -0.19000
C1027       C  0.93927971  0.50436270  0.88037074    -0.07500
C1028       C  0.95093812  0.50673748  0.88594921    -0.03500
C1029       C  0.95137989  0.50912769  0.89887651    -0.08900
C1030       C  0.94051341  0.50900228  0.90604486    -0.16500
H1031       H  0.90323618  0.51016327  0.95791203     0.11700
H1032       H  0.91644443  0.51068176  0.93939598     0.10900
H1033       H  0.88503542  0.50075013  0.91636486     0.10900
H1034       H  0.87159205  0.50008752  0.93499590     0.11400
H1035       H  0.91950348  0.50227922  0.88317997     0.11500
H1036       H  0.93856214  0.50244724  0.87047523     0.11400
H1037       H  0.96009064  0.51114408  0.90353617     0.11600
H1038       H  0.94110765  0.51079950  0.91599193     0.10400
C1039       C  0.88546126  0.50361546  0.04923994    -0.03400
C1040       C  0.89784271  0.49930316  0.04926816    -0.09200
C1041       C  0.90512269  0.50017815  0.06004109    -0.16800
C1042       C  0.90019378  0.50539898  0.07096845     0.25300
C1043       C  0.88786308  0.50968138  0.07108355    -0.18500
C1044       C  0.88051580  0.50875441  0.06029722    -0.07400
C1045       C  0.90802987  0.50657162  0.08185009    -0.13900
C1046       C  0.91570998  0.50742448  0.09004777    -0.13600
C1047       C  0.92619627  0.50836322  0.09842194     0.25200
C1048       C  0.92520347  0.50491178  0.11099928    -0.19000
C1049       C  0.93574922  0.50523552  0.11874462    -0.07500
C1050       C  0.94741679  0.50891556  0.11394382    -0.03500
C1051       C  0.94819402  0.51262430  0.10137471    -0.08900
C1052       C  0.93768972  0.51233831  0.09370627    -0.16500
H1053       H  0.90192534  0.49517332  0.04099018     0.11700
H1054       H  0.91464978  0.49683734  0.05982171     0.10900
H1055       H  0.88395970  0.51380609  0.07946567     0.10900
H1056       H  0.87106311  0.51225600  0.06056364     0.11400
H1057       H  0.91635465  0.50178852  0.11475892     0.11500
H1058       H  0.93483205  0.50228746  0.12835773     0.11400
H1059       H  0.95693932  0.51571187  0.09738832     0.11600
H1060       H  0.93858247  0.51506063  0.08400862     0.10400
C1061       C  0.79534614  0.50410387  0.99780672    -0.03400
C1062       C  0.78848667  0.50317307  0.00899616    -0.09200
C1063       C  0.77544332  0.50317898  0.00883275    -0.16800
C1064       C  0.76903338  0.50411332  0.99750977     0.25300
C1065       C  0.77572728  0.50501876  0.98633482    -0.18500
C1066       C  0.78876760  0.50501586  0.98646545    -0.07400
C1067       C  0.75560073  0.50412927  0.99735198    -0.13900
C1068       C  0.74435211  0.50408604  0.99722871    -0.13600
C1069       C  0.73092092  0.50390646  0.99715100     0.25200
C1070       C  0.72451194  0.49255145  0.99800016    -0.19000
C1071       C  0.71147629  0.49234198  0.99806714    -0.07500
C1072       C  0.70461984  0.50351856  0.99729355    -0.03500
C1073       C  0.71118628  0.51489144  0.99636362    -0.08900
C1074       C  0.72422922  0.51506885  0.99630009    -0.16500
H1075       H  0.79312690  0.50243548  0.01791469     0.11700
H1076       H  0.77035950  0.50245851  0.01755004     0.10900
H1077       H  0.77086642  0.50573787  0.97750476     0.10900
H1078       H  0.79362332  0.50575100  0.97764982     0.11400
H1079       H  0.72959376  0.48384542  0.99866316     0.11500
H1080       H  0.70684175  0.48340161  0.99882161     0.11400
H1081       H  0.70631428  0.52368830  0.99568485     0.11600
H1082       H  0.72909185  0.52392198  0.99561782     0.10400
C1083       C  0.44886955  0.61625983  0.99524425    -0.03400
C1084       C  0.44931622  0.60359590  0.99170206    -0.09200
C1085       C  0.43852122  0.59630439  0.99162184    -0.16800
C1086       C  0.42706893  0.60149656  0.99504840     0.25300
C1087       C  0.42644197  0.61410036  0.99851489    -0.18500
C1088       C  0.43727596  0.62145475  0.99859681    -0.07400
C1089       C  0.41615361  0.59363717  0.99511082    -0.13900
C1090       C  0.40818397  0.58567172  0.99488057    -0.13600
C1091       C  0.40035609  0.57473625  0.99433226     0.25200
C1092       C  0.38736319  0.57559717  0.99523077    -0.19000
C1093       C  0.38000659  0.56475962  0.99472257    -0.07500
C1094       C  0.38557837  0.55292692  0.99331423    -0.03500
C1095       C  0.39865695  0.55225627  0.99235862    -0.08900
C1096       C  0.40594489  0.56304825  0.99287486    -0.16500
H1097       H  0.45797780  0.59925054  0.98892516     0.11700
H1098       H  0.43912126  0.58656208  0.98890990     0.10900
H1099       H  0.41762186  0.61821597  0.00121758     0.10900
H1100       H  0.43656610  0.63113248  0.00143314     0.11400
H1101       H  0.38292839  0.58461037  0.99635314     0.11500
H1102       H  0.36999871  0.56568248  0.99551001     0.11400
H1103       H  0.40337213  0.54342625  0.99118095     0.11600
H1104       H  0.41599296  0.56226663  0.99213797     0.10400
C1105       C  0.54997246  0.61556647  0.00069909    -0.03400
C1106       C  0.56198187  0.62085804  0.99989665    -0.09200
C1107       C  0.57261314  0.61331583  0.00085219    -0.16800
C1108       C  0.57136422  0.60042115  0.00266197     0.25300
C1109       C  0.55947920  0.59512547  0.00356584    -0.18500
C1110       C  0.54888855  0.60260196  0.00260354    -0.07400
C1111       C  0.58212567  0.59243020  0.00350390    -0.13900
C1112       C  0.59021643  0.58464935  0.00421764    -0.13600
C1113       C  0.59869323  0.57425892  0.00504353     0.25200
C1114       C  0.59508478  0.56356872  0.01160811    -0.19000
C1115       C  0.60275803  0.55304882  0.01173108    -0.07500
C1116       C  0.61420769  0.55307239  0.00531716    -0.03500
C1117       C  0.61794609  0.56396657  0.99901665    -0.08900
C1118       C  0.61019044  0.57447978  0.99882652    -0.16500
H1119       H  0.56318734  0.63077301  0.99838698     0.11700
H1120       H  0.58177740  0.61752523  0.00012433     0.10900
H1121       H  0.55838526  0.58516767  0.00499993     0.10900
H1122       H  0.53987075  0.59815427  0.00344007     0.11400
H1123       H  0.58621557  0.56327705  0.01645396     0.11500
H1124       H  0.59968025  0.54487224  0.01680027     0.11400
H1125       H  0.62666515  0.56424241  0.99392698     0.11600
H1126       H  0.61305489  0.58268137  0.99365724     0.10400
C1127       C  0.50013933  0.88801955  0.94738566    -0.03400
C1128       C  0.50227661  0.90098608  0.94801229    -0.09200
C1129       C  0.50145208  0.90837883  0.93733680    -0.16800
C1130       C  0.49850185  0.90300715  0.92579615     0.25300
C1131       C  0.49651953  0.89008448  0.92496994    -0.18500
C1132       C  0.49736490  0.88262085  0.93569422    -0.07400
C1133       C  0.49731053  0.91100378  0.91503201    -0.13900
C1134       C  0.49636883  0.91900560  0.90715681    -0.13600
C1135       C  0.49527195  0.92985976  0.89926689     0.25200
C1136       C  0.49933991  0.92965709  0.88682678    -0.19000
C1137       C  0.49878644  0.94052938  0.87956219    -0.07500
C1138       C  0.49422880  0.95176117  0.88469167    -0.03500
C1139       C  0.48999672  0.95176323  0.89713865    -0.08900
C1140       C  0.49052136  0.94092491  0.90433431    -0.16500
H1141       H  0.50461827  0.90550443  0.95674530     0.11700
H1142       H  0.50304378  0.91835099  0.93811224     0.10900
H1143       H  0.49421359  0.88580133  0.91608887     0.10900
H1144       H  0.49562829  0.87269531  0.93485307     0.11400
H1145       H  0.50308696  0.92116303  0.88279850     0.11500
H1146       H  0.50216711  0.94018713  0.87004499     0.11400
H1147       H  0.48626139  0.96013486  0.90138769     0.11600
H1148       H  0.48734019  0.94122170  0.91393865     0.10400
C1149       C  0.50180820  0.79753385  0.99869513    -0.03400
C1150       C  0.50576304  0.79069283  0.98817016    -0.09200
C1151       C  0.50565110  0.77761891  0.98827162    -0.16800
C1152       C  0.50153931  0.77116893  0.99885688     0.25300
C1153       C  0.49762201  0.77787875  0.00939014    -0.18500
C1154       C  0.49777548  0.79095670  0.00933088    -0.07400
C1155       C  0.50122512  0.75768905  0.99884929    -0.13900
C1156       C  0.50090894  0.74640832  0.99874197    -0.13600
C1157       C  0.50057324  0.73293142  0.99857338     0.25200
C1158       C  0.48979388  0.72653822  0.00229166    -0.19000
C1159       C  0.48952228  0.71346120  0.00224340    -0.07500
C1160       C  0.50007353  0.70658370  0.99853589    -0.03500
C1161       C  0.51082873  0.71310420  0.99473139    -0.08900
C1162       C  0.51105842  0.72617058  0.99473339    -0.16500
H1163       H  0.50904562  0.79541384  0.97987396     0.11700
H1164       H  0.50873929  0.77254141  0.98006889     0.10900
H1165       H  0.49439352  0.77300462  0.01763655     0.10900
H1166       H  0.49457246  0.79588483  0.01756158     0.11400
H1167       H  0.48161307  0.73165928  0.00528560     0.11500
H1168       H  0.48111821  0.70876576  0.00529981     0.11400
H1169       H  0.51906198  0.70813796  0.99166941     0.11600
H1170       H  0.51943869  0.73099983  0.99177617     0.10400
C1171       C  0.50084192  0.88831288  0.04923728    -0.03400
C1172       C  0.49799138  0.90113429  0.04883552    -0.09200
C1173       C  0.49823992  0.90840185  0.05968815    -0.16800
C1174       C  0.50132684  0.90303077  0.07115687     0.25300
C1175       C  0.50408156  0.89026574  0.07172699    -0.18500
C1176       C  0.50381954  0.88294054  0.06084557    -0.07400
C1177       C  0.50184430  0.91083475  0.08215921    -0.13900
C1178       C  0.50218456  0.91857691  0.09038491    -0.13600
C1179       C  0.50246493  0.92919468  0.09871740     0.25200
C1180       C  0.50183704  0.92775421  0.11170488    -0.19000
C1181       C  0.50182871  0.93829676  0.11954040    -0.07500
C1182       C  0.50240296  0.95040886  0.11445887    -0.03500
C1183       C  0.50319478  0.95166772  0.10139731    -0.08900
C1184       C  0.50320590  0.94117523  0.09363456    -0.16500
H1185       H  0.49551154  0.90561678  0.04015919     0.11700
H1186       H  0.49607193  0.91826411  0.05911577     0.10900
H1187       H  0.50651459  0.88599605  0.08054599     0.10900
H1188       H  0.50612134  0.87313600  0.06152629     0.11400
H1189       H  0.50125799  0.91851845  0.11576321     0.11500
H1190       H  0.50118367  0.93694597  0.12952594     0.11400
H1191       H  0.50382882  0.96075252  0.09707338     0.11600
H1192       H  0.50373621  0.94242479  0.08360950     0.10400
C1193       C  0.44962314  0.99539834  0.38734831    -0.03400
C1194       C  0.45027613  0.99253974  0.40014431    -0.09200
C1195       C  0.43947114  0.99185114  0.40737522    -0.16800
C1196       C  0.42781388  0.99400606  0.40198524     0.25300
C1197       C  0.42699239  0.99667873  0.38921855    -0.18500
C1198       C  0.43783834  0.99733135  0.38191855    -0.07400
C1199       C  0.41689840  0.99384956  0.40983742    -0.13900
C1200       C  0.40887866  0.99386160  0.41774899    -0.13600
C1201       C  0.40086795  0.99401054  0.42855821     0.25200
C1202       C  0.38797598  0.99568757  0.42744535    -0.19000
C1203       C  0.38044980  0.99609962  0.43815834    -0.07500
C1204       C  0.38574273  0.99484791  0.45012770    -0.03500
C1205       C  0.39872380  0.99311142  0.45105661    -0.08900
C1206       C  0.40618231  0.99270257  0.44038311    -0.16500
H1207       H  0.45912802  0.99079836  0.40462940     0.11700
H1208       H  0.44022750  0.98975367  0.41723776     0.10900
H1209       H  0.41801295  0.99839959  0.38494811     0.10900
H1210       H  0.43700521  0.99959517  0.37211631     0.11400
H1211       H  0.38375336  0.99673543  0.41832767     0.11500
H1212       H  0.37052589  0.99742748  0.43702292     0.11400
H1213       H  0.40324528  0.99212238  0.46000358     0.11600
H1214       H  0.41615414  0.99143142  0.44137081     0.10400
C1215       C  0.61460157  0.00589409  0.45187281    -0.03400
C1216       C  0.60168256  0.00811395  0.45269709    -0.09200
C1217       C  0.59421213  0.00790287  0.44203994    -0.16800
C1218       C  0.59945961  0.00552612  0.43032503     0.25300
C1219       C  0.61232892  0.00356582  0.42929368    -0.18500
C1220       C  0.61986625  0.00376686  0.43999640    -0.07400
C1221       C  0.59139660  0.00482671  0.41957593    -0.13900
C1222       C  0.58338188  0.00426424  0.41168436    -0.13600
C1223       C  0.57253955  0.00375820  0.40374656     0.25200
C1224       C  0.57342005  0.00002279  0.39122884    -0.19000
C1225       C  0.56268058  0.99937922  0.38379088    -0.07500
C1226       C  0.55092417  0.00241617  0.38881732    -0.03500
C1227       C  0.55020523  0.00620103  0.40139473    -0.08900
C1228       C  0.56090940  0.00686061  0.40876673    -0.16500
H1229       H  0.59722840  0.00996637  0.46156394     0.11700
H1230       H  0.58427537  0.00948017  0.44296548     0.10900
H1231       H  0.61650976  0.00172755  0.42026307     0.10900
H1232       H  0.62974431  0.00203161  0.43896400     0.11400
H1233       H  0.58237057  0.99755217  0.38724230     0.11500
H1234       H  0.56358397  0.99636014  0.37418228     0.11400
H1235       H  0.54139511  0.00875922  0.40558855     0.11600
H1236       H  0.56010072  0.00977049  0.41843561     0.10400
C1237       C  0.50213047  0.99845061  0.29756401    -0.03400
C1238       C  0.51361744  0.99828561  0.29116090    -0.09200
C1239       C  0.51400560  0.99847311  0.27810045    -0.16800
C1240       C  0.50294468  0.99882770  0.27120443     0.25300
C1241       C  0.49147939  0.99900831  0.27744967    -0.18500
C1242       C  0.49105985  0.99882093  0.29051125    -0.07400
C1243       C  0.50334535  0.99898039  0.25773699    -0.13900
C1244       C  0.50357799  0.99909670  0.24646066    -0.13600
C1245       C  0.50372168  0.99925042  0.23298711     0.25200
C1246       C  0.50455955  0.98806643  0.22624376    -0.19000
C1247       C  0.50458402  0.98819984  0.21317214    -0.07500
C1248       C  0.50376278  0.99955090  0.20660487    -0.03500
C1249       C  0.50295774  0.01074987  0.21351351    -0.08900
C1250       C  0.50293515  0.01058453  0.22658057    -0.16500
H1251       H  0.52234958  0.99795494  0.29617333     0.11700
H1252       H  0.52294577  0.99832092  0.27338275     0.10900
H1253       H  0.48284496  0.99929461  0.27222022     0.10900
H1254       H  0.48203968  0.99900992  0.29502001     0.11400
H1255       H  0.50517158  0.97922358  0.23108981     0.11500
H1256       H  0.50524127  0.97938035  0.20827702     0.11400
H1257       H  0.50229591  0.01968191  0.20889476     0.11600
H1258       H  0.50227139  0.01931167  0.23168709     0.10400
C1259       C  0.49456352  0.05318751  0.88771048    -0.03400
C1260       C  0.49175689  0.05222660  0.90052276    -0.09200
C1261       C  0.49272909  0.06259784  0.90839791    -0.16800
C1262       C  0.49647813  0.07416263  0.90366799     0.25300
C1263       C  0.49915937  0.07532447  0.89091429    -0.18500
C1264       C  0.49819059  0.06491030  0.88297204    -0.07400
C1265       C  0.49772639  0.08462226  0.91211937    -0.13900
C1266       C  0.49864737  0.09238001  0.92028992    -0.13600
C1267       C  0.49966415  0.10038067  0.93112186     0.25200
C1268       C  0.49691818  0.11314317  0.93042479    -0.19000
C1269       C  0.49754101  0.12065856  0.94116368    -0.07500
C1270       C  0.50086459  0.11548260  0.95276480    -0.03500
C1271       C  0.50375557  0.10267007  0.95328237    -0.08900
C1272       C  0.50314272  0.09521057  0.94256995    -0.16500
H1273       H  0.48878754  0.04347257  0.90456073     0.11700
H1274       H  0.49060568  0.06156769  0.91823714     0.10900
H1275       H  0.50209120  0.08423091  0.88713161     0.10900
H1276       H  0.50046207  0.06602568  0.87319565     0.11400
H1277       H  0.49417678  0.11725936  0.92162370     0.11500
H1278       H  0.49519626  0.13044583  0.94039454     0.11400
H1279       H  0.50649705  0.09833256  0.96195364     0.11600
H1280       H  0.50530112  0.08535321  0.94324465     0.10400
C1281       C  0.49627150  0.05162171  0.11715833    -0.03400
C1282       C  0.49911488  0.06333817  0.12249618    -0.09200
C1283       C  0.49908895  0.07418432  0.11516628    -0.16800
C1284       C  0.49618558  0.07346509  0.10243073     0.25300
C1285       C  0.49319292  0.06190157  0.09711812    -0.18500
C1286       C  0.49320393  0.05110336  0.10438349    -0.07400
C1287       C  0.49644304  0.08438261  0.09455530    -0.13900
C1288       C  0.49652841  0.09238900  0.08662714    -0.13600
C1289       C  0.49655985  0.10037028  0.07578365     0.25200
C1290       C  0.49677944  0.09489550  0.06392261    -0.19000
C1291       C  0.49685213  0.10232798  0.05323982    -0.07500
C1292       C  0.49672583  0.11545938  0.05417215    -0.03500
C1293       C  0.49642314  0.12091649  0.06616641    -0.08900
C1294       C  0.49634662  0.11341262  0.07689782    -0.16500
H1295       H  0.50153857  0.06414108  0.13226539     0.11700
H1296       H  0.50143539  0.08308492  0.11940079     0.10900
H1297       H  0.49090963  0.06120671  0.08728510     0.10900
H1298       H  0.49082074  0.04236800  0.09989059     0.11400
H1299       H  0.49689842  0.08482040  0.06291477     0.11500
H1300       H  0.49697255  0.09767532  0.04427433     0.11400
H1301       H  0.49633104  0.13095721  0.06729897     0.11600
H1302       H  0.49615335  0.11777858  0.08603439     0.10400
C1303       C  0.45014392  0.38878802  0.99332901    -0.03400
C1304       C  0.45064009  0.40109391  0.98875257    -0.09200
C1305       C  0.43988307  0.40839232  0.98817329    -0.16800
C1306       C  0.42842681  0.40356447  0.99214465     0.25300
C1307       C  0.42776497  0.39131159  0.99663064    -0.18500
C1308       C  0.43854630  0.38395421  0.99720020    -0.07400
C1309       C  0.41755681  0.41146011  0.99190849    -0.13900
C1310       C  0.40944564  0.41925420  0.99166867    -0.13600
C1311       C  0.40125355  0.42990451  0.99136321     0.25200
C1312       C  0.38873336  0.42896005  0.99499722    -0.19000
C1313       C  0.38115856  0.43962703  0.99522434    -0.07500
C1314       C  0.38605922  0.45136710  0.99187482    -0.03500
C1315       C  0.39859027  0.45210217  0.98802009    -0.08900
C1316       C  0.40609321  0.44148086  0.98778449    -0.16500
H1317       H  0.45931316  0.40513769  0.98554968     0.11700
H1318       H  0.44052477  0.41786365  0.98469012     0.10900
H1319       H  0.41895500  0.38748365  0.99978571     0.10900
H1320       H  0.43780001  0.37456755  0.00083232     0.11400
H1321       H  0.38488039  0.42004123  0.99781154     0.11500
H1322       H  0.37157668  0.43870405  0.99825733     0.11400
H1323       H  0.40268913  0.46087763  0.98517553     0.11600
H1324       H  0.41575413  0.44233508  0.98492877     0.10400
C1325       C  0.55145507  0.38823912  0.99553596    -0.03400
C1326       C  0.56279698  0.38350527  0.00011862    -0.09200
C1327       C  0.57352465  0.39102410  0.00034306    -0.16800
C1328       C  0.57304162  0.40331709  0.99593796     0.25300
C1329       C  0.56185313  0.40802062  0.99124659    -0.18500
C1330       C  0.55116852  0.40057242  0.99103014    -0.07400
C1331       C  0.58378996  0.41139626  0.99643207    -0.13900
C1332       C  0.59169925  0.41942526  0.99662646    -0.13600
C1333       C  0.59966149  0.43027758  0.99675082     0.25200
C1334       C  0.59442127  0.44201479  0.99457611    -0.19000
C1335       C  0.60180421  0.45274610  0.99515449    -0.07500
C1336       C  0.61459323  0.45192454  0.99791356    -0.03500
C1337       C  0.61987784  0.44006059  0.99981312    -0.08900
C1338       C  0.61242868  0.42929460  0.99928027    -0.16500
H1339       H  0.56335343  0.37409112  0.00371023     0.11700
H1340       H  0.58213626  0.38729339  0.00403993     0.10900
H1341       H  0.56136183  0.41751456  0.98780553     0.10900
H1342       H  0.54271206  0.40453430  0.98727131     0.11400
H1343       H  0.58456466  0.44288825  0.99255068     0.11500
H1344       H  0.59744919  0.46167683  0.99343377     0.11400
H1345       H  0.62967831  0.43911406  0.00199589     0.11600
H1346       H  0.61658794  0.42025109  0.00098047     0.10400
C1347       C  0.49952820  0.29782107  0.00067552    -0.03400
C1348       C  0.48851392  0.29146969  0.00404398    -0.09200
C1349       C  0.48823453  0.27839622  0.00469639    -0.16800
C1350       C  0.49892858  0.27141379  0.00196059     0.25300
C1351       C  0.50992168  0.27763666  0.99857430    -0.18500
C1352       C  0.51023624  0.29071373  0.99795458    -0.07400
C1353       C  0.49859210  0.25789518  0.00253988    -0.13900
C1354       C  0.49825737  0.24658825  0.00288409    -0.13600
C1355       C  0.49780526  0.23305948  0.00305493     0.25200
C1356       C  0.49787634  0.22658030  0.01439582    -0.19000
C1357       C  0.49743939  0.21348527  0.01452540    -0.07500
C1358       C  0.49693959  0.20660234  0.00328952    -0.03500
C1359       C  0.49683653  0.21323609  0.99194238    -0.08900
C1360       C  0.49726787  0.22631976  0.99184193    -0.16500
H1361       H  0.48011230  0.29657162  0.00630194     0.11700
H1362       H  0.47965803  0.27373315  0.00733841     0.10900
H1363       H  0.51826442  0.27237786  0.99638653     0.10900
H1364       H  0.51885182  0.29521554  0.99522458     0.11400
H1365       H  0.49828993  0.23164913  0.02315835     0.11500
H1366       H  0.49758286  0.20880711  0.02345341     0.11400
H1367       H  0.49639069  0.20837572  0.98308987     0.11600
H1368       H  0.49718101  0.23118256  0.98298800     0.10400
loop_ 
_geom_bond_atom_site_label_1 
_geom_bond_atom_site_label_2 
_geom_bond_distance 
_geom_bond_site_symmetry_2 
_ccdc_geom_bond_type 
N1            N2   1.320       .  A
N1            C5   1.348       .  A
N1           Cu9   2.088       .  S
N2            C3   1.342       .  A
N2           Cu8   2.062       .  S
C3            C4   1.386       .  A
C3            H6   1.081       .  S
C4            C5   1.392       .  A
C4         C1303   1.488       .  S
C5            H7   1.081       .  S
Cu8          N11   2.061       .  S
Cu9          N19   2.089       .  S
Cu10         N12   2.089       .  S
Cu10         N18   2.091       .  S
N11          N12   1.321       .  A
N11          C15   1.341       .  A
N12          C13   1.349       .  A
C13          C14   1.392       .  A
C13          H16   1.081       .  S
C14          C15   1.385       .  A
C14        C1325   1.487       .  S
C15          H17   1.081       .  S
N18          N19   1.324       .  A
N18          C22   1.347       .  A
N19          C20   1.347       .  A
C20          C21   1.389   1_556  A
C20          H23   1.081       .  S
C21          C22   1.390   1_554  A
C21        C1347   1.492       .  S
C22          H24   1.081       .  S
N25          N26   1.320       .  A
N25          C29   1.349       .  A
N25         Cu33   2.088       .  S
N26          C27   1.342       .  A
N26         Cu32   2.064   1_556  S
C27          C28   1.387       .  A
C27          H30   1.081       .  S
C28          C29   1.392       .  A
C28        C1270   1.489       .  S
C29          H31   1.081       .  S
Cu32         N35   2.064       .  S
Cu33         N43   2.090       .  S
Cu34         N36   2.094       .  S
Cu34         N42   2.096       .  S
N35          N36   1.320       .  A
N35          C39   1.341       .  A
N36          C37   1.350       .  A
C37          C38   1.394       .  A
C37          H40   1.081       .  S
C38          C39   1.387       .  A
C38        C1292   1.492       .  S
C39          H41   1.081       .  S
N42          N43   1.324   1_554  A
N42          C46   1.348       .  A
N43          C44   1.347       .  A
C44          C45   1.390   1_556  A
C44          H47   1.081       .  S
C45          C46   1.391       .  A
C45        C1358   1.495       .  S
C46          H48   1.081       .  S
N49          N50   1.320       .  A
N49          C53   1.348       .  A
N49         Cu57   2.080   1_545  S
N50          C51   1.342       .  A
N50         Cu56   2.065       .  S
C51          C52   1.387       .  A
C51          H54   1.081       .  S
C52          C53   1.390       .  A
C52        C1226   1.486       .  S
C53          H55   1.081       .  S
Cu56         N59   2.064   1_545  S
Cu57         N67   2.081       .  S
Cu58         N60   2.083       .  S
Cu58         N66   2.084       .  S
N59          N60   1.321       .  A
N59          C63   1.341       .  A
N60          C61   1.348       .  A
C61          C62   1.390       .  A
C61          H64   1.081       .  S
C62          C63   1.385       .  A
C62        C1193   1.485       .  S
C63          H65   1.081       .  S
N66          N67   1.323       .  A
N66          C70   1.346       .  A
N67          C68   1.345       .  A
C68          C69   1.388       .  A
C68          H71   1.081       .  S
C69          C70   1.390       .  A
C69        C1237   1.490       .  S
C70          H72   1.081       .  S
N73          N74   1.320       .  A
N73          C77   1.349       .  A
N73         Cu81   2.087       .  S
N74          C75   1.341       .  A
N74         Cu80   2.065   1_565  S
C75          C76   1.386       .  A
C75          H78   1.081       .  S
C76          C77   1.392       .  A
C76        C1182   1.489       .  S
C77          H79   1.081       .  S
Cu80         N83   2.065       .  S
Cu81         N91   2.088       .  S
Cu82         N84   2.083       .  S
Cu82         N90   2.084       .  S
N83          N84   1.320       .  A
N83          C87   1.341       .  A
N84          C85   1.349       .  A
C85          C86   1.392       .  A
C85          H88   1.081       .  S
C86          C87   1.388       .  A
C86        C1281   1.490       .  S
C87          H89   1.081       .  S
N90          N91   1.324   1_545  A
N90          C94   1.345       .  A
N91          C92   1.346       .  A
C92          C93   1.390       .  A
C92          H95   1.081       .  S
C93          C94   1.389   1_565  A
C93        C1248   1.491       .  S
C94          H96   1.081       .  S
N97          N98   1.321       .  A
N97         C101   1.350       .  A
N97        Cu105   2.089       .  S
N98          C99   1.342       .  A
N98        Cu104   2.068       .  S
C99         C100   1.386       .  A
C99         H102   1.081       .  S
C100        C101   1.392       .  A
C100       C1127   1.489       .  S
C101        H103   1.081       .  S
Cu104       N107   2.068   1_556  S
Cu105       N115   2.090       .  S
Cu106       N108   2.082       .  S
Cu106       N114   2.083       .  S
N107        N108   1.320       .  A
N107        C111   1.343       .  A
N108        C109   1.348       .  A
C109        C110   1.391       .  A
C109        H112   1.081       .  S
C110        C111   1.387       .  A
C110       C1171   1.488       .  S
C111        H113   1.081       .  S
N114        N115   1.324   1_554  A
N114        C118   1.346       .  A
N115        C116   1.346       .  A
C116        C117   1.388       .  A
C116        H119   1.081       .  S
C117        C118   1.387   1_556  A
C117       C1149   1.487       .  S
C118        H120   1.081       .  S
N121        N122   1.320       .  A
N121        C125   1.347       .  A
N121       Cu129   2.080       .  S
N122        C123   1.341       .  A
N122       Cu128   2.063       .  S
C123        C124   1.387       .  A
C123        H126   1.081       .  S
C124        C125   1.391       .  A
C124       C1083   1.486       .  S
C125        H127   1.081       .  S
Cu128       N131   2.063       .  S
Cu129       N139   2.082       .  S
Cu130       N132   2.083       .  S
Cu130       N138   2.085       .  S
N131        N132   1.320       .  A
N131        C135   1.341       .  A
N132        C133   1.349   1_556  A
C133        C134   1.392   1_554  A
C133        H136   1.081       .  S
C134        C135   1.386       .  A
C134       C1105   1.487   1_556  S
C135        H137   1.081       .  S
N138        N139   1.324       .  A
N138        C142   1.345       .  A
N139        C140   1.346       .  A
C140        C141   1.387       .  A
C140        H143   1.082       .  S
C141        C142   1.387       .  A
C141       C1160   1.486       .  S
C142        H144   1.081       .  S
N145        N146   1.320       .  A
N145        C149   1.348       .  A
N145       Cu153   2.080       .  S
N146        C147   1.341       .  A
N146       Cu152   2.063       .  S
C147        C148   1.385       .  A
C147        H150   1.081       .  S
C148        C149   1.390       .  A
C148       C1017   1.483       .  S
C149        H151   1.082       .  S
Cu152       N155   2.063   1_556  S
Cu153       N163   2.081       .  S
Cu154       N156   2.083       .  S
Cu154       N162   2.084       .  S
N155        N156   1.320       .  A
N155        C159   1.342       .  A
N156        C157   1.348       .  A
C157        C158   1.390       .  A
C157        H160   1.081       .  S
C158        C159   1.385       .  A
C158       C1039   1.485       .  S
C159        H161   1.081       .  S
N162        N163   1.323   1_554  A
N162        C166   1.345       .  A
N163        C164   1.345       .  A
C164        C165   1.388       .  A
C164        H167   1.081       .  S
C165        C166   1.389   1_556  A
C165       C1061   1.490       .  S
C166        H168   1.081       .  S
N169        N170   1.320       .  A
N169        C173   1.347       .  A
N169       Cu177   2.079   1_554  S
N170        C171   1.342       .  A
N170       Cu176   2.065       .  S
C171        C172   1.385       .  A
C171        H174   1.082       .  S
C172        C173   1.388       .  A
C172       C1116   1.482       .  S
C173        H175   1.082       .  S
Cu176       N179   2.065       .  S
Cu177       N187   2.080       .  S
Cu178       N180   2.078       .  S
Cu178       N186   2.079       .  S
N179        N180   1.320   1_554  A
N179        C183   1.341       .  A
N180        C181   1.348       .  A
C181        C182   1.389       .  A
C181        H184   1.081       .  S
C182        C183   1.385   1_556  A
C182       C1336   1.483       .  S
C183        H185   1.081       .  S
N186        N187   1.323       .  A
N186        C190   1.344       .  A
N187        C188   1.345       .  A
C188        C189   1.388       .  A
C188        H191   1.081       .  S
C189        C190   1.388       .  A
C189       C1072   1.488       .  S
C190        H192   1.081       .  S
N193        N194   1.321   1_655  A
N193        C197   1.351       .  A
N193       Cu201   2.092       .  S
N194        C195   1.340       .  A
N194       Cu200   2.062       .  S
C195        C196   1.383   1_455  A
C195        H198   1.081       .  S
C196        C197   1.392       .  A
C196        C951   1.486       .  S
C197        H199   1.082       .  S
Cu200       N203   2.062       .  S
Cu201       N211   2.093       .  S
Cu202       N204   2.087       .  S
Cu202       N210   2.088       .  S
N203        N204   1.319       .  A
N203        C207   1.342       .  A
N204        C205   1.350       .  A
C205        C206   1.393       .  A
C205        H208   1.081       .  S
C206        C207   1.387       .  A
C206        C984   1.491       .  S
C207        H209   1.081       .  S
N210        N211   1.324   1_455  A
N210        C214   1.345       .  A
N211        C212   1.347       .  A
C212        C213   1.390       .  A
C212        H215   1.081       .  S
C213        C214   1.389   1_655  A
C213       C1006   1.493       .  S
C214        H216   1.081       .  S
N217        N218   1.321       .  A
N217        C221   1.349       .  A
N217       Cu225   2.086       .  S
N218        C219   1.341       .  A
N218       Cu224   2.068       .  S
C219        C220   1.385       .  A
C219        H222   1.081       .  S
C220        C221   1.391       .  A
C220       C1050   1.486       .  S
C221        H223   1.082       .  S
Cu224       N227   2.068   1_655  S
Cu225       N235   2.088       .  S
Cu226       N228   2.081       .  S
Cu226       N234   2.083       .  S
N227        N228   1.319       .  A
N227        C231   1.342       .  A
N228        C229   1.348       .  A
C229        C230   1.392       .  A
C229        H232   1.081       .  S
C230        C231   1.389       .  A
C230        C929   1.492       .  S
C231        H233   1.080       .  S
N234        N235   1.323   1_455  A
N234        C238   1.345       .  A
N235        C236   1.347       .  A
C236        C237   1.390       .  A
C236        H239   1.081       .  S
C237        C238   1.388   1_655  A
C237        C995   1.491       .  S
C238        H240   1.081       .  S
N241        N242   1.320       .  A
N241        C245   1.348       .  A
N241       Cu249   2.083       .  S
N242        C243   1.341       .  A
N242       Cu248   2.062       .  S
C243        C244   1.387       .  A
C243        H246   1.080       .  S
C244        C245   1.392       .  A
C244       C1094   1.489       .  S
C245        H247   1.081       .  S
Cu248       N251   2.062       .  S
Cu249       N259   2.085       .  S
Cu250       N252   2.079       .  S
Cu250       N258   2.080       .  S
N251        N252   1.319       .  A
N251        C255   1.341       .  A
N252        C253   1.348       .  A
C253        C254   1.391       .  A
C253        H256   1.081       .  S
C254        C255   1.386       .  A
C254       C1314   1.487       .  S
C255        H257   1.081       .  S
N258        N259   1.323       .  A
N258        C262   1.344       .  A
N259        C260   1.346       .  A
C260        C261   1.390       .  A
C260        H263   1.081       .  S
C261        C262   1.388       .  A
C261        C918   1.489       .  S
C262        H264   1.081       .  S
N265        N266   1.319       .  A
N265        C269   1.347       .  A
N265       Cu273   2.074       .  S
N266        C267   1.340       .  A
N266       Cu272   2.058   1_556  S
C267        C268   1.386       .  A
C267        H270   1.081       .  S
C268        C269   1.390       .  A
C268        C885   1.485       .  S
C269        H271   1.081       .  S
Cu272       N275   2.059       .  S
Cu273       N283   2.076       .  S
Cu274       N276   2.090       .  S
Cu274       N282   2.091       .  S
N275        N276   1.320       .  A
N275        C279   1.340       .  A
N276        C277   1.350       .  A
C277        C278   1.392       .  A
C277        H280   1.082       .  S
C278        C279   1.384       .  A
C278        C940   1.485       .  S
C279        H281   1.081       .  S
N282        N283   1.324   1_554  A
N282        C286   1.346       .  A
N283        C284   1.344       .  A
C284        C285   1.387   1_556  A
C284        H287   1.081       .  S
C285        C286   1.390       .  A
C285        C907   1.490       .  S
C286        H288   1.081       .  S
N289        N290   1.320       .  A
N289        C293   1.347       .  A
N289       Cu297   2.078       .  S
N290        C291   1.341       .  A
N290       Cu296   2.060   1_655  S
C291        C292   1.386       .  A
C291        H294   1.081       .  S
C292        C293   1.391       .  A
C292       C1028   1.486       .  S
C293        H295   1.081       .  S
Cu296       N299   2.060       .  S
Cu297       N307   2.079       .  S
Cu298       N300   2.076       .  S
Cu298       N306   2.077       .  S
N299        N300   1.320       .  A
N299        C303   1.340       .  A
N300        C301   1.347       .  A
C301        C302   1.390       .  A
C301        H304   1.081       .  S
C302        C303   1.385       .  A
C302        C896   1.484       .  S
C303        H305   1.081       .  S
N306        N307   1.323   1_455  A
N306        C310   1.344       .  A
N307        C308   1.344       .  A
C308        C309   1.388   1_655  A
C308        H311   1.081       .  S
C309        C310   1.387       .  A
C309        C874   1.485       .  S
C310        H312   1.081       .  S
N313        N314   1.320       .  A
N313        C317   1.347       .  A
N313       Cu321   2.079       .  S
N314        C315   1.341       .  A
N314       Cu320   2.064       .  S
C315        C316   1.387       .  A
C315        H318   1.080       .  S
C316        C317   1.392       .  A
C316        C830   1.489       .  S
C317        H319   1.081       .  S
Cu320       N323   2.064       .  S
Cu321       N331   2.080   1_655  S
Cu322       N324   2.079       .  S
Cu322       N330   2.080       .  S
N323        N324   1.319   1_655  A
N323        C327   1.341       .  A
N324        C325   1.348       .  A
C325        C326   1.392   1_455  A
C325        H328   1.081       .  S
C326        C327   1.387       .  A
C326        C841   1.489   1_655  S
C327        H329   1.081       .  S
N330        N331   1.324       .  A
N330        C334   1.344       .  A
N331        C332   1.345       .  A
C332        C333   1.386       .  A
C332        H335   1.082       .  S
C333        C334   1.386       .  A
C333        C863   1.483       .  S
C334        H336   1.081       .  S
N337        N338   1.319       .  A
N337        C341   1.347       .  A
N337       Cu345   2.074       .  S
N338        C339   1.341       .  A
N338       Cu344   2.059       .  S
C339        C340   1.385       .  A
C339        H342   1.081       .  S
C340        C341   1.389       .  A
C340        C775   1.483       .  S
C341        H343   1.081       .  S
Cu344       N347   2.059   1_455  S
Cu345       N355   2.075       .  S
Cu346       N348   2.085       .  S
Cu346       N354   2.086       .  S
N347        N348   1.320       .  A
N347        C351   1.340       .  A
N348        C349   1.349       .  A
C349        C350   1.392       .  A
C349        H352   1.081       .  S
C350        C351   1.385       .  A
C350        C753   1.487       .  S
C351        H353   1.081       .  S
N354        N355   1.323   1_655  A
N354        C358   1.346       .  A
N355        C356   1.344       .  A
C356        C357   1.387       .  A
C356        H359   1.081       .  S
C357        C358   1.389   1_455  A
C357        C797   1.488       .  S
C358        H360   1.081       .  S
N361        N362   1.320       .  A
N361        C365   1.348       .  A
N361       Cu369   2.083       .  S
N362        C363   1.342       .  A
N362       Cu368   2.069       .  S
C363        C364   1.388       .  A
C363        H366   1.081       .  S
C364        C365   1.392       .  A
C364        C852   1.490       .  S
C365        H367   1.081       .  S
Cu368       N371   2.069       .  S
Cu369       N379   2.084       .  S
Cu370       N372   2.085       .  S
Cu370       N378   2.086       .  S
N371        N372   1.320       .  A
N371        C375   1.343       .  A
N372        C373   1.349       .  A
C373        C374   1.391       .  A
C373        H376   1.082       .  S
C374        C375   1.386       .  A
C374        C973   1.487       .  S
C375        H377   1.081       .  S
N378        N379   1.323       .  A
N378        C382   1.345       .  A
N379        C380   1.346       .  A
C380        C381   1.389       .  A
C380        H383   1.081       .  S
C381        C382   1.389       .  A
C381        C808   1.490       .  S
C382        H384   1.081       .  S
N385        N386   1.320       .  A
N385        C389   1.349       .  A
N385       Cu393   2.083       .  S
N386        C387   1.342       .  A
N386       Cu392   2.066   1_565  S
C387        C388   1.387       .  A
C387        H390   1.081       .  S
C388        C389   1.391       .  A
C388       C1138   1.488       .  S
C389        H391   1.081       .  S
Cu392       N395   2.066       .  S
Cu393       N403   2.084       .  S
Cu394       N396   2.087       .  S
Cu394       N402   2.088       .  S
N395        N396   1.320       .  A
N395        C399   1.341       .  A
N396        C397   1.349       .  A
C397        C398   1.392       .  A
C397        H400   1.081       .  S
C398        C399   1.387       .  A
C398       C1259   1.490       .  S
C399        H401   1.081       .  S
N402        N403   1.324   1_545  A
N402        C406   1.347       .  A
N403        C404   1.345       .  A
C404        C405   1.387   1_565  A
C404        H407   1.081       .  S
C405        C406   1.388       .  A
C405        C742   1.487       .  S
C406        H408   1.081       .  S
N409        N410   1.320       .  A
N409        C413   1.346       .  A
N409       Cu417   2.076       .  S
N410        C411   1.341       .  A
N410       Cu416   2.064       .  S
C411        C412   1.387       .  A
C411        H414   1.081       .  S
C412        C413   1.389       .  A
C412        C720   1.485       .  S
C413        H415   1.081       .  S
Cu416       N419   2.064       .  S
Cu417       N427   2.077       .  S
Cu418       N420   2.079       .  S
Cu418       N426   2.080       .  S
N419        N420   1.321       .  A
N419        C423   1.342       .  A
N420        C421   1.346       .  A
C421        C422   1.388       .  A
C421        H424   1.081       .  S
C422        C423   1.386       .  A
C422        C687   1.483       .  S
C423        H425   1.081       .  S
N426        N427   1.322       .  A
N426        C430   1.346       .  A
N427        C428   1.344       .  A
C428        C429   1.388       .  A
C428        H431   1.081       .  S
C429        C430   1.389       .  A
C429        C731   1.489       .  S
C430        H432   1.081       .  S
N433        N434   1.320       .  A
N433        C437   1.348       .  A
N433       Cu441   2.083       .  S
N434        C435   1.341       .  A
N434       Cu440   2.060   1_565  S
C435        C436   1.385       .  A
C435        H438   1.081       .  S
C436        C437   1.390       .  A
C436        C764   1.484       .  S
C437        H439   1.081       .  S
Cu440       N443   2.060       .  S
Cu441       N451   2.084       .  S
Cu442       N444   2.082       .  S
Cu442       N450   2.084       .  S
N443        N444   1.320       .  A
N443        C447   1.340       .  A
N444        C445   1.348       .  A
C445        C446   1.392       .  A
C445        H448   1.081       .  S
C446        C447   1.387       .  A
C446        C643   1.489       .  S
C447        H449   1.080       .  S
N450        N451   1.323   1_545  A
N450        C454   1.346       .  A
N451        C452   1.346       .  A
C452        C453   1.389   1_565  A
C452        H455   1.081       .  S
C453        C454   1.388       .  A
C453        C676   1.489       .  S
C454        H456   1.081       .  S
N457        N458   1.319       .  A
N457        C461   1.347       .  A
N457       Cu465   2.074       .  S
N458        C459   1.341       .  A
N458       Cu464   2.059       .  S
C459        C460   1.385       .  A
C459        H462   1.081       .  S
C460        C461   1.388       .  A
C460        C709   1.481       .  S
C461        H463   1.081       .  S
Cu464       N467   2.059       .  S
Cu465       N475   2.076       .  S
Cu466       N468   2.095       .  S
Cu466       N474   2.096       .  S
N467        N468   1.320       .  A
N467        C471   1.340       .  A
N468        C469   1.350       .  A
C469        C470   1.394       .  A
C469        H472   1.081       .  S
C470        C471   1.385       .  A
C470       C1215   1.490       .  S
C471        H473   1.081       .  S
N474        N475   1.324       .  A
N474        C478   1.348       .  A
N475        C476   1.344       .  A
C476        C477   1.386       .  A
C476        H479   1.081       .  S
C477        C478   1.390       .  A
C477        C665   1.489       .  S
C478        H480   1.081       .  S
N481        N482   1.319       .  A
N481        C485   1.347   1_565  A
N481       Cu489   2.074   1_565  S
N482        C483   1.341       .  A
N482       Cu488   2.063       .  S
C483        C484   1.386       .  A
C483        H486   1.081       .  S
C484        C485   1.389   1_565  A
C484        C698   1.483   1_565  S
C485        H487   1.081       .  S
Cu488       N491   2.063       .  S
Cu489       N499   2.075       .  S
Cu490       N492   2.086   1_545  S
Cu490       N498   2.087       .  S
N491        N492   1.320       .  A
N491        C495   1.341       .  A
N492        C493   1.348       .  A
C493        C494   1.392       .  A
C493        H496   1.081       .  S
C494        C495   1.387       .  A
C494       C1204   1.490       .  S
C495        H497   1.080       .  S
N498        N499   1.323       .  A
N498        C502   1.347       .  A
N499        C500   1.343       .  A
C500        C501   1.387       .  A
C500        H503   1.081       .  S
C501        C502   1.390       .  A
C501        C632   1.489       .  S
C502        H504   1.081       .  S
N505        N506   1.320       .  A
N505        C509   1.346       .  A
N505       Cu513   2.077       .  S
N506        C507   1.342       .  A
N506       Cu512   2.066   1_565  S
C507        C508   1.386       .  A
C507        H510   1.081       .  S
C508        C509   1.388       .  A
C508        C786   1.483       .  S
C509        H511   1.081       .  S
Cu512       N515   2.066       .  S
Cu513       N523   2.078       .  S
Cu514       N516   2.076       .  S
Cu514       N522   2.077       .  S
N515        N516   1.320       .  A
N515        C519   1.341       .  A
N516        C517   1.347       .  A
C517        C518   1.390       .  A
C517        H520   1.081       .  S
C518        C519   1.387       .  A
C518        C610   1.487       .  S
C519        H521   1.081       .  S
N522        N523   1.322   1_545  A
N522        C526   1.344       .  A
N523        C524   1.345       .  A
C524        C525   1.389   1_565  A
C524        H527   1.081       .  S
C525        C526   1.389       .  A
C525        C621   1.489       .  S
C526        H528   1.081       .  S
N529        N530   1.321       .  A
N529        C533   1.349       .  A
N529       Cu537   2.087       .  S
N530        C531   1.341       .  A
N530       Cu536   2.064       .  S
C531        C532   1.384       .  A
C531        H534   1.081       .  S
C532        C533   1.390       .  A
C532        C819   1.484       .  S
C533        H535   1.082       .  S
Cu536       N539   2.065       .  S
Cu537       N547   2.088       .  S
Cu538       N540   2.083       .  S
Cu538       N546   2.084       .  S
N539        N540   1.320       .  A
N539        C543   1.343       .  A
N540        C541   1.348       .  A
C541        C542   1.391       .  A
C541        H544   1.081       .  S
C542        C543   1.387       .  A
C542        C962   1.488       .  S
C543        H545   1.081       .  S
N546        N547   1.323       .  A
N546        C550   1.345       .  A
N547        C548   1.347       .  A
C548        C549   1.390       .  A
C548        H551   1.081       .  S
C549        C550   1.389       .  A
C549        C577   1.492       .  S
C550        H552   1.081       .  S
N553        N554   1.320       .  A
N553        C557   1.348       .  A
N553       Cu561   2.080       .  S
N554        C555   1.341       .  A
N554       Cu560   2.064       .  S
C555        C556   1.386       .  A
C555        H558   1.081       .  S
C556        C557   1.390       .  A
C556        C654   1.486       .  S
C557        H559   1.081       .  S
Cu560       N563   2.064   1_655  S
Cu561       N571   2.082       .  S
Cu562       N564   2.079       .  S
Cu562       N570   2.080       .  S
N563        N564   1.320       .  A
N563        C567   1.341       .  A
N564        C565   1.347       .  A
C565        C566   1.391       .  A
C565        H568   1.081       .  S
C566        C567   1.388       .  A
C566        C599   1.488       .  S
C567        H569   1.081       .  S
N570        N571   1.323   1_455  A
N570        C574   1.346       .  A
N571        C572   1.345       .  A
C572        C573   1.386       .  A
C572        H575   1.082       .  S
C573        C574   1.386   1_655  A
C573        C588   1.484   1_655  S
C574        H576   1.082       .  S
C577        C578   1.409       .  A
C577        C582   1.410       .  A
C578        C579   1.401   1_655  A
C578        H591   1.081   1_655  S
C579        C580   1.400   1_455  A
C579        H592   1.083       .  S
C580        C581   1.398       .  A
C580        C583   1.444       .  S
C581        C582   1.399       .  A
C581        H593   1.084       .  S
C582        H594   1.081       .  S
C583        C584   1.208       .  T
C584        C585   1.443   1_655  S
C585        C586   1.400       .  A
C585        C590   1.400   1_455  A
C586        C587   1.400       .  A
C586        H595   1.083       .  S
C587        C588   1.407       .  A
C587        H596   1.082       .  S
C588        C589   1.407   1_455  A
C589        C590   1.400       .  A
C589        H597   1.082       .  S
C590        H598   1.083       .  S
C599        C600   1.410       .  A
C599        C604   1.408       .  A
C600        C601   1.402       .  A
C600        H613   1.081       .  S
C601        C602   1.400       .  A
C601        H614   1.083       .  S
C602        C603   1.397       .  A
C602        C605   1.440       .  S
C603        C604   1.395       .  A
C603        H615   1.084       .  S
C604        H616   1.080       .  S
C605        C606   1.206       .  T
C606        C607   1.439       .  S
C607        C608   1.397       .  A
C607        C612   1.400       .  A
C608        C609   1.395       .  A
C608        H617   1.084       .  S
C609        C610   1.408       .  A
C609        H618   1.081       .  S
C610        C611   1.409       .  A
C611        C612   1.402       .  A
C611        H619   1.081       .  S
C612        H620   1.083       .  S
C621        C622   1.409       .  A
C621        C626   1.409   1_545  A
C622        C623   1.399       .  A
C622        H635   1.081       .  S
C623        C624   1.399       .  A
C623        H636   1.084       .  S
C624        C625   1.399   1_545  A
C624        C627   1.441       .  S
C625        C626   1.399       .  A
C625        H637   1.084       .  S
C626        H638   1.081       .  S
C627        C628   1.207       .  T
C628        C629   1.441       .  S
C629        C630   1.398       .  A
C629        C634   1.400       .  A
C630        C631   1.398       .  A
C630        H639   1.084       .  S
C631        C632   1.410       .  A
C631        H640   1.081       .  S
C632        C633   1.409       .  A
C633        C634   1.400       .  A
C633        H641   1.081       .  S
C634        H642   1.083       .  S
C643        C644   1.409       .  A
C643        C648   1.410       .  A
C644        C645   1.394       .  A
C644        H657   1.080       .  S
C645        C646   1.397       .  A
C645        H658   1.084       .  S
C646        C647   1.400       .  A
C646        C649   1.440       .  S
C647        C648   1.402       .  A
C647        H659   1.083       .  S
C648        H660   1.081       .  S
C649        C650   1.206       .  T
C650        C651   1.440       .  S
C651        C652   1.401       .  A
C651        C656   1.397       .  A
C652        C653   1.403       .  A
C652        H661   1.083       .  S
C653        C654   1.409       .  A
C653        H662   1.082       .  S
C654        C655   1.407       .  A
C655        C656   1.395       .  A
C655        H663   1.081       .  S
C656        H664   1.084       .  S
C665        C666   1.408   1_545  A
C665        C670   1.409       .  A
C666        C667   1.401       .  A
C666        H679   1.082       .  S
C667        C668   1.400   1_565  A
C667        H680   1.083       .  S
C668        C669   1.399       .  A
C668        C671   1.444       .  S
C669        C670   1.400       .  A
C669        H681   1.083       .  S
C670        H682   1.082       .  S
C671        C672   1.209       .  T
C672        C673   1.444       .  S
C673        C674   1.400   1_545  A
C673        C678   1.400       .  A
C674        C675   1.400       .  A
C674        H683   1.083       .  S
C675        C676   1.409   1_565  A
C675        H684   1.081       .  S
C676        C677   1.409       .  A
C677        C678   1.400       .  A
C677        H685   1.081       .  S
C678        H686   1.083       .  S
C687        C688   1.407       .  A
C687        C692   1.408       .  A
C688        C689   1.396       .  A
C688        H701   1.082       .  S
C689        C690   1.399       .  A
C689        H702   1.084       .  S
C690        C691   1.399       .  A
C690        C693   1.439       .  S
C691        C692   1.400       .  A
C691        H703   1.083       .  S
C692        H704   1.082       .  S
C693        C694   1.205       .  T
C694        C695   1.439       .  S
C695        C696   1.400       .  A
C695        C700   1.397       .  A
C696        C697   1.402       .  A
C696        H705   1.083       .  S
C697        C698   1.408       .  A
C697        H706   1.082   1_545  S
C698        C699   1.407       .  A
C699        C700   1.394       .  A
C699        H707   1.081       .  S
C700        H708   1.084       .  S
C709        C710   1.406       .  A
C709        C714   1.407       .  A
C710        C711   1.394       .  A
C710        H723   1.082       .  S
C711        C712   1.398       .  A
C711        H724   1.084       .  S
C712        C713   1.400       .  A
C712        C715   1.438       .  S
C713        C714   1.401       .  A
C713        H725   1.083   1_545  S
C714        H726   1.082   1_545  S
C715        C716   1.205       .  T
C716        C717   1.438       .  S
C717        C718   1.400       .  A
C717        C722   1.397       .  A
C718        C719   1.401       .  A
C718        H727   1.083       .  S
C719        C720   1.409       .  A
C719        H728   1.082       .  S
C720        C721   1.407       .  A
C721        C722   1.394       .  A
C721        H729   1.081       .  S
C722        H730   1.084       .  S
C731        C732   1.409       .  A
C731        C736   1.409       .  A
C732        C733   1.400       .  A
C732        H745   1.081       .  S
C733        C734   1.400       .  A
C733        H746   1.084       .  S
C734        C735   1.399       .  A
C734        C737   1.443       .  S
C735        C736   1.399       .  A
C735        H747   1.084       .  S
C736        H748   1.081       .  S
C737        C738   1.208       .  T
C738        C739   1.443       .  S
C739        C740   1.399   1_545  A
C739        C744   1.400       .  A
C740        C741   1.399       .  A
C740        H749   1.084       .  S
C741        C742   1.408   1_565  A
C741        H750   1.082       .  S
C742        C743   1.408       .  A
C743        C744   1.400       .  A
C743        H751   1.082       .  S
C744        H752   1.083       .  S
C753        C754   1.408       .  A
C753        C758   1.408       .  A
C754        C755   1.403       .  A
C754        H767   1.082       .  S
C755        C756   1.401       .  A
C755        H768   1.083       .  S
C756        C757   1.397       .  A
C756        C759   1.441       .  S
C757        C758   1.395       .  A
C757        H769   1.084       .  S
C758        H770   1.081       .  S
C759        C760   1.207       .  T
C760        C761   1.441       .  S
C761        C762   1.398       .  A
C761        C766   1.401       .  A
C762        C763   1.396       .  A
C762        H771   1.084       .  S
C763        C764   1.408       .  A
C763        H772   1.082       .  S
C764        C765   1.408       .  A
C765        C766   1.402       .  A
C765        H773   1.082       .  S
C766        H774   1.083       .  S
C775        C776   1.408       .  A
C775        C780   1.407       .  A
C776        C777   1.402       .  A
C776        H789   1.082       .  S
C777        C778   1.400       .  A
C777        H790   1.083       .  S
C778        C779   1.398       .  A
C778        C781   1.438       .  S
C779        C780   1.394       .  A
C779        H791   1.084       .  S
C780        H792   1.081       .  S
C781        C782   1.205       .  T
C782        C783   1.439       .  S
C783        C784   1.398       .  A
C783        C788   1.400       .  A
C784        C785   1.395       .  A
C784        H793   1.084       .  S
C785        C786   1.406       .  A
C785        H794   1.082       .  S
C786        C787   1.408       .  A
C787        C788   1.401       .  A
C787        H795   1.082       .  S
C788        H796   1.083       .  S
C797        C798   1.408   1_455  A
C797        C802   1.409       .  A
C798        C799   1.399       .  A
C798        H811   1.081       .  S
C799        C800   1.399   1_655  A
C799        H812   1.084       .  S
C800        C801   1.399       .  A
C800        C803   1.441       .  S
C801        C802   1.399       .  A
C801        H813   1.084       .  S
C802        H814   1.081       .  S
C803        C804   1.207       .  T
C804        C805   1.441       .  S
C805        C806   1.398       .  A
C805        C810   1.399       .  A
C806        C807   1.399       .  A
C806        H815   1.084       .  S
C807        C808   1.409       .  A
C807        H816   1.081       .  S
C808        C809   1.409       .  A
C809        C810   1.400       .  A
C809        H817   1.081       .  S
C810        H818   1.084       .  S
C819        C820   1.407       .  A
C819        C824   1.408       .  A
C820        C821   1.395       .  A
C820        H833   1.082       .  S
C821        C822   1.398       .  A
C821        H834   1.084       .  S
C822        C823   1.402       .  A
C822        C825   1.441       .  S
C823        C824   1.403       .  A
C823        H835   1.083   1_655  S
C824        H836   1.082   1_655  S
C825        C826   1.207       .  T
C826        C827   1.441       .  S
C827        C828   1.400       .  A
C827        C832   1.398       .  A
C828        C829   1.402       .  A
C828        H837   1.083       .  S
C829        C830   1.410       .  A
C829        H838   1.081       .  S
C830        C831   1.409       .  A
C831        C832   1.396       .  A
C831        H839   1.080       .  S
C832        H840   1.084       .  S
C841        C842   1.409       .  A
C841        C846   1.408   1_455  A
C842        C843   1.404       .  A
C842        H855   1.082       .  S
C843        C844   1.401       .  A
C843        H856   1.083       .  S
C844        C845   1.397   1_455  A
C844        C847   1.443       .  S
C845        C846   1.395       .  A
C845        H857   1.084       .  S
C846        H858   1.081       .  S
C847        C848   1.208       .  T
C848        C849   1.443       .  S
C849        C850   1.398       .  A
C849        C854   1.401       .  A
C850        C851   1.396       .  A
C850        H859   1.084       .  S
C851        C852   1.409       .  A
C851        H860   1.080       .  S
C852        C853   1.410       .  A
C853        C854   1.403       .  A
C853        H861   1.082       .  S
C854        H862   1.083       .  S
C863        C864   1.407       .  A
C863        C868   1.407   1_455  A
C864        C865   1.399       .  A
C864        H877   1.082       .  S
C865        C866   1.399       .  A
C865        H878   1.084       .  S
C866        C867   1.399   1_455  A
C866        C869   1.439       .  S
C867        C868   1.398       .  A
C867        H879   1.084       .  S
C868        H880   1.082       .  S
C869        C870   1.206       .  T
C870        C871   1.439       .  S
C871        C872   1.398   1_455  A
C871        C876   1.399       .  A
C872        C873   1.398       .  A
C872        H881   1.084       .  S
C873        C874   1.408   1_655  A
C873        H882   1.081       .  S
C874        C875   1.409       .  A
C875        C876   1.399       .  A
C875        H883   1.081       .  S
C876        H884   1.084       .  S
C885        C886   1.408       .  A
C885        C890   1.409       .  A
C886        C887   1.394       .  A
C886        H899   1.081       .  S
C887        C888   1.397       .  A
C887        H900   1.084       .  S
C888        C889   1.399       .  A
C888        C891   1.438       .  S
C889        C890   1.401       .  A
C889        H901   1.083       .  S
C890        H902   1.082       .  S
C891        C892   1.205       .  T
C892        C893   1.438       .  S
C893        C894   1.400       .  A
C893        C898   1.397       .  A
C894        C895   1.401       .  A
C894        H903   1.083       .  S
C895        C896   1.408       .  A
C895        H904   1.082       .  S
C896        C897   1.407       .  A
C897        C898   1.394       .  A
C897        H905   1.081       .  S
C898        H906   1.084       .  S
C907        C908   1.410   1_554  A
C907        C912   1.409       .  A
C908        C909   1.399       .  A
C908        H921   1.081       .  S
C909        C910   1.398   1_556  A
C909        H922   1.084       .  S
C910        C911   1.399       .  A
C910        C913   1.441       .  S
C911        C912   1.400       .  A
C911        H923   1.083       .  S
C912        H924   1.081       .  S
C913        C914   1.207   1_554  T
C914        C915   1.441       .  S
C915        C916   1.398       .  A
C915        C920   1.399       .  A
C916        C917   1.399       .  A
C916        H925   1.084   1_556  S
C917        C918   1.410       .  A
C917        H926   1.081       .  S
C918        C919   1.409       .  A
C919        C920   1.400       .  A
C919        H927   1.081       .  S
C920        H928   1.084       .  S
C929        C930   1.410       .  A
C929        C934   1.409       .  A
C930        C931   1.404       .  A
C930        H943   1.081       .  S
C931        C932   1.401       .  A
C931        H944   1.083       .  S
C932        C933   1.398       .  A
C932        C935   1.444       .  S
C933        C934   1.396       .  A
C933        H945   1.084       .  S
C934        H946   1.080       .  S
C935        C936   1.209       .  T
C936        C937   1.444       .  S
C937        C938   1.398       .  A
C937        C942   1.402       .  A
C938        C939   1.396       .  A
C938        H947   1.084       .  S
C939        C940   1.407       .  A
C939        H948   1.082       .  S
C940        C941   1.408       .  A
C941        C942   1.404       .  A
C941        H949   1.082       .  S
C942        H950   1.083       .  S
C951        C952   1.408       .  A
C951        C956   1.408   1_655  A
C952        C953   1.405       .  A
C952        H965   1.082       .  S
C953        C954   1.403       .  A
C953        H966   1.083       .  S
C954        C955   1.398   1_655  A
C954        C957   1.444       .  S
C955        C956   1.396       .  A
C955        H967   1.084       .  S
C956        H968   1.082       .  S
C957        C958   1.209       .  T
C958        C959   1.444       .  S
C959        C960   1.399       .  A
C959        C964   1.401       .  A
C960        C961   1.398       .  A
C960        H969   1.084       .  S
C961        C962   1.408       .  A
C961        H970   1.081       .  S
C962        C963   1.409       .  A
C963        C964   1.402       .  A
C963        H971   1.082   1_655  S
C964        H972   1.083   1_655  S
C973        C974   1.407       .  A
C973        C978   1.408       .  A
C974        C975   1.398       .  A
C974        H987   1.082       .  S
C975        C976   1.399       .  A
C975        H988   1.084       .  S
C976        C977   1.402       .  A
C976        C979   1.446       .  S
C977        C978   1.404       .  A
C977        H989   1.083   1_455  S
C978        H990   1.082   1_455  S
C979        C980   1.210       .  T
C980        C981   1.446       .  S
C981        C982   1.402       .  A
C981        C986   1.398       .  A
C982        C983   1.404       .  A
C982        H991   1.083       .  S
C983        C984   1.409       .  A
C983        H992   1.082       .  S
C984        C985   1.409       .  A
C985        C986   1.397       .  A
C985        H993   1.081   1_455  S
C986        H994   1.084       .  S
C995        C996   1.409       .  A
C995       C1000   1.410   1_655  A
C996        C997   1.401       .  A
C996       H1009   1.081       .  S
C997        C998   1.400       .  A
C997       H1010   1.083       .  S
C998        C999   1.399   1_655  A
C998       C1001   1.444       .  S
C999       C1000   1.400       .  A
C999       H1011   1.084       .  S
C1000      H1012   1.081       .  S
C1001      C1002   1.209       .  T
C1002      C1003   1.445       .  S
C1003      C1004   1.400       .  A
C1003      C1008   1.399   1_655  A
C1004      C1005   1.401       .  A
C1004      H1013   1.083       .  S
C1005      C1006   1.410       .  A
C1005      H1014   1.081       .  S
C1006      C1007   1.410   1_655  A
C1007      C1008   1.400       .  A
C1007      H1015   1.081       .  S
C1008      H1016   1.084       .  S
C1017      C1018   1.407       .  A
C1017      C1022   1.408       .  A
C1018      C1019   1.394       .  A
C1018      H1031   1.082       .  S
C1019      C1020   1.397       .  A
C1019      H1032   1.084       .  S
C1020      C1021   1.401       .  A
C1020      C1023   1.440       .  S
C1021      C1022   1.403       .  A
C1021      H1033   1.083       .  S
C1022      H1034   1.082       .  S
C1023      C1024   1.206       .  T
C1024      C1025   1.440       .  S
C1025      C1026   1.400       .  A
C1025      C1030   1.398       .  A
C1026      C1027   1.402       .  A
C1026      H1035   1.083       .  S
C1027      C1028   1.409       .  A
C1027      H1036   1.082       .  S
C1028      C1029   1.408       .  A
C1029      C1030   1.395       .  A
C1029      H1037   1.081       .  S
C1030      H1038   1.084       .  S
C1039      C1040   1.407       .  A
C1039      C1044   1.408       .  A
C1040      C1041   1.397       .  A
C1040      H1053   1.082       .  S
C1041      C1042   1.399       .  A
C1041      H1054   1.084       .  S
C1042      C1043   1.401       .  A
C1042      C1045   1.443       .  S
C1043      C1044   1.402       .  A
C1043      H1055   1.083       .  S
C1044      H1056   1.082       .  S
C1045      C1046   1.208       .  T
C1046      C1047   1.443       .  S
C1047      C1048   1.402       .  A
C1047      C1052   1.398       .  A
C1048      C1049   1.404       .  A
C1048      H1057   1.083       .  S
C1049      C1050   1.408       .  A
C1049      H1058   1.082       .  S
C1050      C1051   1.407       .  A
C1051      C1052   1.395       .  A
C1051      H1059   1.082       .  S
C1052      H1060   1.084       .  S
C1061      C1062   1.409   1_556  A
C1061      C1066   1.409       .  A
C1062      C1063   1.399       .  A
C1062      H1075   1.081       .  S
C1063      C1064   1.399   1_554  A
C1063      H1076   1.084       .  S
C1064      C1065   1.398       .  A
C1064      C1067   1.441       .  S
C1065      C1066   1.399       .  A
C1065      H1077   1.084       .  S
C1066      H1078   1.081       .  S
C1067      C1068   1.207       .  T
C1068      C1069   1.441       .  S
C1069      C1070   1.398       .  A
C1069      C1074   1.399       .  A
C1070      C1071   1.398       .  A
C1070      H1079   1.084       .  S
C1071      C1072   1.409       .  A
C1071      H1080   1.081       .  S
C1072      C1073   1.409       .  A
C1073      C1074   1.399       .  A
C1073      H1081   1.081       .  S
C1074      H1082   1.084       .  S
C1083      C1084   1.408       .  A
C1083      C1088   1.409       .  A
C1084      C1085   1.395       .  A
C1084      H1097   1.081       .  S
C1085      C1086   1.398       .  A
C1085      H1098   1.084       .  S
C1086      C1087   1.400       .  A
C1086      C1089   1.440       .  S
C1087      C1088   1.402       .  A
C1087      H1099   1.083   1_556  S
C1088      H1100   1.082   1_556  S
C1089      C1090   1.206       .  T
C1090      C1091   1.440       .  S
C1091      C1092   1.400       .  A
C1091      C1096   1.397       .  A
C1092      C1093   1.403       .  A
C1092      H1101   1.083       .  S
C1093      C1094   1.410       .  A
C1093      H1102   1.081       .  S
C1094      C1095   1.408       .  A
C1095      C1096   1.395       .  A
C1095      H1103   1.080       .  S
C1096      H1104   1.084       .  S
C1105      C1106   1.409   1_554  A
C1105      C1110   1.408       .  A
C1106      C1107   1.403   1_556  A
C1106      H1119   1.082       .  S
C1107      C1108   1.401       .  A
C1107      H1120   1.083       .  S
C1108      C1109   1.397       .  A
C1108      C1111   1.442       .  S
C1109      C1110   1.395       .  A
C1109      H1121   1.084       .  S
C1110      H1122   1.081       .  S
C1111      C1112   1.207       .  T
C1112      C1113   1.442       .  S
C1113      C1114   1.399       .  A
C1113      C1118   1.401   1_554  A
C1114      C1115   1.397       .  A
C1114      H1123   1.084       .  S
C1115      C1116   1.406       .  A
C1115      H1124   1.082       .  S
C1116      C1117   1.407   1_554  A
C1117      C1118   1.402       .  A
C1117      H1125   1.082       .  S
C1118      H1126   1.083       .  S
C1127      C1128   1.408       .  A
C1127      C1132   1.409       .  A
C1128      C1129   1.396       .  A
C1128      H1141   1.081       .  S
C1129      C1130   1.398       .  A
C1129      H1142   1.084       .  S
C1130      C1131   1.402       .  A
C1130      C1133   1.444       .  S
C1131      C1132   1.405       .  A
C1131      H1143   1.083       .  S
C1132      H1144   1.082       .  S
C1133      C1134   1.209       .  T
C1134      C1135   1.444       .  S
C1135      C1136   1.402       .  A
C1135      C1140   1.398       .  A
C1136      C1137   1.404       .  A
C1136      H1145   1.083       .  S
C1137      C1138   1.409       .  A
C1137      H1146   1.082       .  S
C1138      C1139   1.408       .  A
C1139      C1140   1.397       .  A
C1139      H1147   1.081       .  S
C1140      H1148   1.084       .  S
C1149      C1150   1.408       .  A
C1149      C1154   1.408   1_556  A
C1150      C1151   1.400       .  A
C1150      H1163   1.082       .  S
C1151      C1152   1.400       .  A
C1151      H1164   1.083       .  S
C1152      C1153   1.400   1_556  A
C1152      C1155   1.444       .  S
C1153      C1154   1.400       .  A
C1153      H1165   1.083       .  S
C1154      H1166   1.082       .  S
C1155      C1156   1.208       .  T
C1156      C1157   1.443       .  S
C1157      C1158   1.400   1_556  A
C1157      C1162   1.400       .  A
C1158      C1159   1.400       .  A
C1158      H1167   1.083       .  S
C1159      C1160   1.408   1_554  A
C1159      H1168   1.082       .  S
C1160      C1161   1.408       .  A
C1161      C1162   1.399       .  A
C1161      H1169   1.082       .  S
C1162      H1170   1.083       .  S
C1171      C1172   1.408       .  A
C1171      C1176   1.409       .  A
C1172      C1173   1.397       .  A
C1172      H1185   1.081       .  S
C1173      C1174   1.399       .  A
C1173      H1186   1.084       .  S
C1174      C1175   1.401       .  A
C1174      C1177   1.443       .  S
C1175      C1176   1.403       .  A
C1175      H1187   1.083       .  S
C1176      H1188   1.082       .  S
C1177      C1178   1.208       .  T
C1178      C1179   1.443       .  S
C1179      C1180   1.402       .  A
C1179      C1184   1.397       .  A
C1180      C1181   1.404       .  A
C1180      H1189   1.083       .  S
C1181      C1182   1.409       .  A
C1181      H1190   1.082       .  S
C1182      C1183   1.408       .  A
C1183      C1184   1.395       .  A
C1183      H1191   1.081       .  S
C1184      H1192   1.084       .  S
C1193      C1194   1.407       .  A
C1193      C1198   1.408       .  A
C1194      C1195   1.395       .  A
C1194      H1207   1.082       .  S
C1195      C1196   1.398       .  A
C1195      H1208   1.084       .  S
C1196      C1197   1.401       .  A
C1196      C1199   1.441       .  S
C1197      C1198   1.403       .  A
C1197      H1209   1.083       .  S
C1198      H1210   1.082       .  S
C1199      C1200   1.207       .  T
C1200      C1201   1.441       .  S
C1201      C1202   1.400       .  A
C1201      C1206   1.397       .  A
C1202      C1203   1.403       .  A
C1202      H1211   1.083       .  S
C1203      C1204   1.410       .  A
C1203      H1212   1.081       .  S
C1204      C1205   1.409       .  A
C1205      C1206   1.395       .  A
C1205      H1213   1.080       .  S
C1206      H1214   1.084       .  S
C1215      C1216   1.409       .  A
C1215      C1220   1.409       .  A
C1216      C1217   1.396       .  A
C1216      H1229   1.080       .  S
C1217      C1218   1.397       .  A
C1217      H1230   1.084       .  S
C1218      C1219   1.401       .  A
C1218      C1221   1.442       .  S
C1219      C1220   1.404       .  A
C1219      H1231   1.083       .  S
C1220      H1232   1.082       .  S
C1221      C1222   1.208       .  T
C1222      C1223   1.442       .  S
C1223      C1224   1.401       .  A
C1223      C1228   1.398       .  A
C1224      C1225   1.403   1_545  A
C1224      H1233   1.083   1_545  S
C1225      C1226   1.409   1_565  A
C1225      H1234   1.082       .  S
C1226      C1227   1.407       .  A
C1227      C1228   1.396       .  A
C1227      H1235   1.081       .  S
C1228      H1236   1.084       .  S
C1237      C1238   1.410       .  A
C1237      C1242   1.409       .  A
C1238      C1239   1.400       .  A
C1238      H1251   1.081       .  S
C1239      C1240   1.399       .  A
C1239      H1252   1.084       .  S
C1240      C1241   1.399       .  A
C1240      C1243   1.443       .  S
C1241      C1242   1.400       .  A
C1241      H1253   1.084       .  S
C1242      H1254   1.081       .  S
C1243      C1244   1.208       .  T
C1244      C1245   1.443       .  S
C1245      C1246   1.399       .  A
C1245      C1250   1.399   1_565  A
C1246      C1247   1.400       .  A
C1246      H1255   1.084       .  S
C1247      C1248   1.409       .  A
C1247      H1256   1.081       .  S
C1248      C1249   1.410   1_565  A
C1249      C1250   1.400       .  A
C1249      H1257   1.081       .  S
C1250      H1258   1.084       .  S
C1259      C1260   1.409       .  A
C1259      C1264   1.409       .  A
C1260      C1261   1.396       .  A
C1260      H1273   1.081       .  S
C1261      C1262   1.398       .  A
C1261      H1274   1.084       .  S
C1262      C1263   1.401       .  A
C1262      C1265   1.444       .  S
C1263      C1264   1.404       .  A
C1263      H1275   1.083       .  S
C1264      H1276   1.082       .  S
C1265      C1266   1.208       .  T
C1266      C1267   1.444       .  S
C1267      C1268   1.401       .  A
C1267      C1272   1.399       .  A
C1268      C1269   1.403       .  A
C1268      H1277   1.083       .  S
C1269      C1270   1.409       .  A
C1269      H1278   1.082       .  S
C1270      C1271   1.408       .  A
C1271      C1272   1.397       .  A
C1271      H1279   1.081       .  S
C1272      H1280   1.084       .  S
C1281      C1282   1.410       .  A
C1281      C1286   1.409       .  A
C1282      C1283   1.404       .  A
C1282      H1295   1.082       .  S
C1283      C1284   1.401       .  A
C1283      H1296   1.083       .  S
C1284      C1285   1.398       .  A
C1284      C1287   1.444       .  S
C1285      C1286   1.396       .  A
C1285      H1297   1.084       .  S
C1286      H1298   1.081       .  S
C1287      C1288   1.209       .  T
C1288      C1289   1.444       .  S
C1289      C1290   1.397       .  A
C1289      C1294   1.401       .  A
C1290      C1291   1.396       .  A
C1290      H1299   1.084       .  S
C1291      C1292   1.409       .  A
C1291      H1300   1.080       .  S
C1292      C1293   1.410       .  A
C1293      C1294   1.405       .  A
C1293      H1301   1.082       .  S
C1294      H1302   1.083       .  S
C1303      C1304   1.408       .  A
C1303      C1308   1.409       .  A
C1304      C1305   1.397       .  A
C1304      H1317   1.081       .  S
C1305      C1306   1.398       .  A
C1305      H1318   1.084       .  S
C1306      C1307   1.400       .  A
C1306      C1309   1.442       .  S
C1307      C1308   1.402       .  A
C1307      H1319   1.083       .  S
C1308      H1320   1.082   1_556  S
C1309      C1310   1.207       .  T
C1310      C1311   1.442       .  S
C1311      C1312   1.401       .  A
C1311      C1316   1.397       .  A
C1312      C1313   1.403       .  A
C1312      H1321   1.083       .  S
C1313      C1314   1.409       .  A
C1313      H1322   1.082       .  S
C1314      C1315   1.408       .  A
C1315      C1316   1.395       .  A
C1315      H1323   1.081       .  S
C1316      H1324   1.084       .  S
C1325      C1326   1.409   1_556  A
C1325      C1330   1.408       .  A
C1326      C1327   1.403       .  A
C1326      H1339   1.082       .  S
C1327      C1328   1.401   1_554  A
C1327      H1340   1.083       .  S
C1328      C1329   1.397       .  A
C1328      C1331   1.441       .  S
C1329      C1330   1.395       .  A
C1329      H1341   1.084       .  S
C1330      H1342   1.081       .  S
C1331      C1332   1.207       .  T
C1332      C1333   1.441       .  S
C1333      C1334   1.398       .  A
C1333      C1338   1.401       .  A
C1334      C1335   1.395       .  A
C1334      H1343   1.084       .  S
C1335      C1336   1.407       .  A
C1335      H1344   1.082       .  S
C1336      C1337   1.408       .  A
C1337      C1338   1.402       .  A
C1337      H1345   1.082   1_556  S
C1338      H1346   1.083   1_556  S
C1347      C1348   1.409       .  A
C1347      C1352   1.409   1_554  A
C1348      C1349   1.402       .  A
C1348      H1361   1.082       .  S
C1349      C1350   1.401       .  A
C1349      H1362   1.083       .  S
C1350      C1351   1.401   1_554  A
C1350      C1353   1.449       .  S
C1351      C1352   1.402       .  A
C1351      H1363   1.083       .  S
C1352      H1364   1.082       .  S
C1353      C1354   1.212       .  T
C1354      C1355   1.449       .  S
C1355      C1356   1.401       .  A
C1355      C1360   1.400   1_554  A
C1356      C1357   1.403       .  A
C1356      H1365   1.083       .  S
C1357      C1358   1.410       .  A
C1357      H1366   1.081       .  S
C1358      C1359   1.410   1_554  A
C1359      C1360   1.402       .  A
C1359      H1367   1.081       .  S
C1360      H1368   1.083       .  S
