geometry optimzed in LAMMPS
_audit_creation_date              2020-12-01 
_audit_creation_method            'lammps2cif' 
_symmetry_space_group_name_H-M    'P1' 
_symmetry_Int_Tables_number       1 
_symmetry_cell_setting            triclinic 
loop_ 
_symmetry_equiv_pos_as_xyz 
  x,y,z 
_cell_length_a                    43.77097439 
_cell_length_b                    39.0655197617946 
_cell_length_c                    38.19565142171957 
_cell_angle_alpha                 89.72234345971447 
_cell_angle_beta                  90.55736371739712 
_cell_angle_gamma                 89.92557029774275 
loop_ 
_atom_site_label 
_atom_site_type_symbol 
_atom_site_fract_x 
_atom_site_fract_y 
_atom_site_fract_z 
_atom_site_charge 
O1          O  0.46451434  0.05054348  0.01261086    -0.73100
O2          O  0.53135760  0.00221083  0.46071959    -0.74100
O3          O  0.46627712  0.00252465  0.45710972    -0.62700
O4          O  0.52950003  0.05060302  0.01620895    -0.71100
O5          O  0.52867644  0.00748699  0.05425054    -0.70700
O6          O  0.46518720  0.95953908  0.49533652    -0.61900
O7          O  0.52939393  0.95912465  0.49878884    -0.74500
O8          O  0.46317984  0.00746332  0.05072033    -0.73200
Cu9        Cu  0.49797269  0.02800776  0.48534707     1.04600
Cu10       Cu  0.49657989  0.98202558  0.02623310     1.04300
C11         C  0.45301265  0.03621674  0.03956055     0.93100
C12         C  0.54054217  0.97283102  0.47135768     0.92200
C13         C  0.45598775  0.97340012  0.46676260     0.84400
C14         C  0.53931698  0.03641110  0.04435095     0.90600
O15         O  0.46587269  0.48855105  0.05602690    -0.73100
O16         O  0.53341588  0.53619460  0.50454575    -0.74100
O17         O  0.46897487  0.53862587  0.50176138    -0.62700
O18         O  0.53122958  0.48638562  0.05873571    -0.71100
O19         O  0.53108178  0.44456829  0.01956969    -0.70700
O20         O  0.46842957  0.49674793  0.46265795    -0.61900
O21         O  0.53387246  0.49434349  0.46541391    -0.74500
O22         O  0.46608325  0.44670638  0.01690752    -0.73200
Cu23       Cu  0.49985181  0.51379681  0.03171365     1.04600
Cu24       Cu  0.49982926  0.46913421  0.48973405     1.04300
C25         C  0.45521572  0.46026077  0.04450574     0.93100
C26         C  0.54429520  0.52274621  0.47691833     0.92200
C27         C  0.45895260  0.52590161  0.47315973     0.84400
C28         C  0.54134983  0.45764684  0.04791528     0.90600
N29         N  0.09793930  0.08709261  0.42812511    -0.27500
N30         N  0.10678614  0.05731346  0.41533019    -0.35300
C31         C  0.08865094  0.03238485  0.42787022     0.00900
C32         C  0.06763229  0.04713041  0.44998335     0.06900
C33         C  0.07423515  0.08177931  0.44965081    -0.06200
H34         H  0.09071729  0.00556064  0.42145703     0.07600
H35         H  0.06216352  0.10178513  0.46330846     0.08800
Cu36       Cu  0.14297392  0.05190795  0.38132191     0.44200
Cu37       Cu  0.11666134  0.13405035  0.41345411     0.42000
Cu38       Cu  0.17344874  0.13179570  0.34652820     0.43900
N39         N  0.17827279  0.05461799  0.34580440    -0.34900
N40         N  0.18880201  0.08367900  0.33287447    -0.29100
C41         C  0.21001325  0.07677947  0.30881128    -0.05200
C42         C  0.21303433  0.04154599  0.30628332     0.07000
C43         C  0.19270874  0.02838646  0.33039413     0.00800
H44         H  0.22153754  0.09629086  0.29382972     0.08500
H45         H  0.18784353  0.00163116  0.33525070     0.07500
N46         N  0.15546765  0.17697694  0.36531179    -0.36300
N47         N  0.13490771  0.17791524  0.39040194    -0.28500
C48         C  0.12746576  0.21077188  0.39647115    -0.03700
C49         C  0.14408979  0.23142748  0.37404874     0.04900
C50         C  0.16164587  0.20911968  0.35468607     0.03000
H51         H  0.11076656  0.21895572  0.41541229     0.08100
H52         H  0.17748533  0.21566157  0.33419189     0.06900
N53         N  0.09293907  0.41327895  0.41660162    -0.27500
N54         N  0.09913690  0.44257018  0.40076181    -0.35300
C55         C  0.08267587  0.46765061  0.41569673     0.00900
C56         C  0.06562003  0.45340668  0.44244217     0.06900
C57         C  0.07275193  0.41890678  0.44228633    -0.06200
H58         H  0.08297734  0.49424375  0.40756732     0.07600
H59         H  0.06325080  0.39918468  0.45883613     0.08800
Cu60       Cu  0.13036878  0.44618648  0.36004200     0.44200
Cu61       Cu  0.11087375  0.36684853  0.40084803     0.42000
Cu62       Cu  0.16488333  0.36710696  0.32842626     0.43900
N63         N  0.16535934  0.44437285  0.32340210    -0.34900
N64         N  0.17765012  0.41589018  0.31119406    -0.29100
C65         C  0.20118670  0.42422438  0.29020691    -0.05200
C66         C  0.20389865  0.45953048  0.28944660     0.07000
C67         C  0.18098536  0.47135133  0.31095068     0.00800
H68         H  0.21661817  0.40592156  0.27858903     0.08500
H69         H  0.17701107  0.49763955  0.31850424     0.07500
N70         N  0.14981811  0.32280291  0.35391701    -0.36300
N71         N  0.13026537  0.32313611  0.38012642    -0.28500
C72         C  0.12533250  0.29088679  0.39106010    -0.03700
C73         C  0.14262647  0.26903992  0.37096947     0.04900
C74         C  0.15790399  0.29009869  0.34764258     0.03000
H75         H  0.11027485  0.28393256  0.41223825     0.08100
H76         H  0.17374723  0.28226366  0.32761779     0.06900
N77         N  0.40572614  0.91450543  0.42048824    -0.27500
N78         N  0.40065828  0.94286294  0.40233702    -0.35300
C79         C  0.41749126  0.96833367  0.41616663     0.00900
C80         C  0.43370958  0.95535440  0.44454046     0.06900
C81         C  0.42566113  0.92118003  0.44658761    -0.06200
H82         H  0.41791845  0.99434609  0.40624936     0.07600
H83         H  0.43424464  0.90237391  0.46504869     0.08800
Cu84       Cu  0.37056201  0.94510505  0.36007926     0.44200
Cu85       Cu  0.38671441  0.86777230  0.40720291     0.42000
Cu86       Cu  0.33385079  0.86606466  0.33251841     0.43900
N87         N  0.33637705  0.94272427  0.32212069    -0.34900
N88         N  0.32275794  0.91425714  0.31173298    -0.29100
C89         C  0.29927580  0.92265171  0.29013357    -0.05200
C90         C  0.29817459  0.95799195  0.28688225     0.07000
C91         C  0.32187845  0.96972940  0.30773573     0.00800
H92         H  0.28258295  0.90463532  0.28016330     0.08500
H93         H  0.32668828  0.99612444  0.31421321     0.07500
N94         N  0.34868687  0.82243055  0.35991491    -0.36300
N95         N  0.36781260  0.82341653  0.38694507    -0.28500
C96         C  0.37335259  0.79133582  0.39827807    -0.03700
C97         C  0.35690442  0.76892422  0.37756600     0.04900
C98         C  0.34146884  0.78949053  0.35352213     0.03000
H99         H  0.38847165  0.78485670  0.41987405     0.08100
H100        H  0.32639916  0.78112446  0.33264240     0.06900
N101        N  0.40702401  0.58632864  0.43013698    -0.27500
N102        N  0.39855136  0.55727721  0.41524357    -0.35300
C103        C  0.41600317  0.53159391  0.42785975     0.00900
C104        C  0.43614642  0.54491191  0.45224609     0.06900
C105        C  0.42981914  0.57965742  0.45315604    -0.06200
H106        H  0.41374228  0.50504926  0.42031371     0.07600
H107        H  0.44119105  0.59872218  0.46902217     0.08800
Cu108      Cu  0.36291892  0.55272559  0.37947493     0.44200
Cu109      Cu  0.38817304  0.63398686  0.41719454     0.42000
Cu110      Cu  0.32966861  0.63151806  0.34937405     0.43900
N111        N  0.32692272  0.55472897  0.34392359    -0.34900
N112        N  0.31513819  0.58385493  0.33242928    -0.29100
C113        C  0.29327913  0.57710363  0.30852753    -0.05200
C114        C  0.29105865  0.54184745  0.30472757     0.07000
C115        C  0.31266227  0.52857336  0.32785475     0.00800
H116        H  0.28031358  0.59669300  0.29494957     0.08500
H117        H  0.31815092  0.50183320  0.33195633     0.07500
N118        N  0.34696217  0.67653810  0.37008111    -0.36300
N119        N  0.36795268  0.67767590  0.39519940    -0.28500
C120        C  0.37439984  0.71069725  0.40208015    -0.03700
C121        C  0.35670921  0.73120969  0.38013349     0.04900
C122        C  0.33959494  0.70865804  0.36026131     0.03000
H123        H  0.39118090  0.71910841  0.42113230     0.08100
H124        H  0.32322466  0.71504866  0.33986026     0.06900
N125        N  0.09352044  0.91184765  0.08778770    -0.27500
N126        N  0.09947479  0.94045012  0.10483189    -0.35300
C127        C  0.08047880  0.96526055  0.09311014     0.00900
C128        C  0.06189498  0.95152634  0.06722035     0.06900
C129        C  0.07082863  0.91765184  0.06454187    -0.06200
H130        H  0.08090205  0.99155286  0.10190205     0.07600
H131        H  0.06174658  0.89871353  0.04674890     0.08800
Cu132      Cu  0.13521857  0.94383779  0.14075042     0.44200
Cu133      Cu  0.11694909  0.86645951  0.09700879     0.42000
Cu134      Cu  0.18294740  0.86761432  0.15594215     0.43900
N135        N  0.17468273  0.94276195  0.17137828    -0.34900
N136        N  0.19282390  0.91596604  0.17620136    -0.29100
C137        C  0.21593851  0.92494347  0.19799608    -0.05200
C138        C  0.21175654  0.95878394  0.20747159     0.07000
C139        C  0.18544880  0.96910579  0.19015592     0.00800
H140        H  0.23334005  0.90761360  0.20782979     0.08500
H141        H  0.17440051  0.99383266  0.19185952     0.03500
N142        N  0.16457340  0.82300897  0.13438048    -0.36300
N143        N  0.14075553  0.82300410  0.11277772    -0.28500
C144        C  0.13361542  0.79053720  0.10461703    -0.03700
C145        C  0.15374742  0.76889244  0.12193290     0.04900
C146        C  0.17312661  0.79033258  0.14056440     0.03000
H147        H  0.11459771  0.78324735  0.08795705     0.08100
H148        H  0.19163485  0.78275100  0.15791723     0.06900
N149        N  0.09485282  0.58751066  0.08485381    -0.27500
N150        N  0.10138153  0.55836646  0.10111519    -0.35300
C151        C  0.08294656  0.53363607  0.08858312     0.00900
C152        C  0.06421740  0.54782984  0.06300699     0.06900
C153        C  0.07239383  0.58196355  0.06128382    -0.06200
H154        H  0.08366447  0.50710574  0.09689322     0.07600
H155        H  0.06272670  0.60136086  0.04421857     0.08800
Cu156      Cu  0.13649368  0.55256791  0.13771912     0.44200
Cu157      Cu  0.11605636  0.63399989  0.09516709     0.42000
Cu158      Cu  0.17909622  0.63081395  0.15465706     0.43900
N159        N  0.17536410  0.55436086  0.16935399    -0.34900
N160        N  0.19074712  0.58297313  0.17483778    -0.29100
C161        C  0.21414316  0.57640590  0.19676784    -0.05200
C162        C  0.21363278  0.54199845  0.20583263     0.07000
C163        C  0.18875689  0.52872937  0.18775080     0.00800
H164        H  0.23002043  0.59567650  0.20586022     0.08500
H165        H  0.18041033  0.50270481  0.18871910     0.07500
N166        N  0.16247176  0.67650973  0.13386164    -0.36300
N167        N  0.13909192  0.67755802  0.11174395    -0.28500
C168        C  0.13279258  0.71040784  0.10377808    -0.03700
C169        C  0.15318200  0.73110529  0.12177763     0.04900
C170        C  0.17171577  0.70873204  0.14059841     0.03000
H171        H  0.11434106  0.71860333  0.08663131     0.08100
H172        H  0.19014191  0.71535565  0.15836043     0.06900
C173        C  0.27094839  0.52164766  0.27988685     0.86300
C174        C  0.28914053  0.49761386  0.25640686    -0.53900
C175        C  0.27166273  0.47861541  0.23396492     0.09200
C176        C  0.23699417  0.48554156  0.23714720     0.20200
C177        C  0.25182355  0.54330147  0.25428347    -0.54700
C178        C  0.23395238  0.52475349  0.23181841     0.09300
C179        C  0.24764966  0.49885141  0.29843109    -0.54200
C180        C  0.22977497  0.47998252  0.27627710     0.09900
H181        H  0.31391192  0.49631500  0.25698139     0.14400
H182        H  0.22258538  0.47020878  0.21900655     0.00200
H183        H  0.25206443  0.57096708  0.25409044     0.14700
H184        H  0.24492673  0.49839090  0.32671609     0.14500
N185        N  0.39184283  0.08940813  0.07355224    -0.27500
N186        N  0.38706819  0.06054063  0.09090907    -0.35300
C187        C  0.40839465  0.03752322  0.08187821     0.00900
C188        C  0.42736411  0.05250572  0.05753082     0.06900
C189        C  0.41619663  0.08534425  0.05271983    -0.06200
H190        H  0.40970085  0.01161274  0.09195808     0.07600
H191        H  0.42519108  0.10490063  0.03557041     0.08800
Cu192      Cu  0.35185281  0.05296788  0.12591431     0.44200
Cu193      Cu  0.36622404  0.13369254  0.08011249     0.42000
Cu194      Cu  0.30708776  0.12937917  0.14361826     0.43900
N195        N  0.31597547  0.05389904  0.16080648    -0.34900
N196        N  0.30004135  0.08195560  0.16699969    -0.29100
C197        C  0.27962657  0.07523749  0.19199063    -0.05200
C198        C  0.28274883  0.04132874  0.20228595     0.07000
C199        C  0.30592092  0.02844819  0.18173450     0.00800
H200        H  0.26392317  0.09404969  0.20213939     0.08500
H201        H  0.31548460  0.00291645  0.18270479     0.07500
N202        N  0.31975027  0.17491155  0.11956659    -0.36300
N203        N  0.34142253  0.17623718  0.09576238    -0.28500
C204        C  0.34625672  0.20908929  0.08683558    -0.03700
C205        C  0.32681402  0.22954767  0.10605210     0.04900
C206        C  0.31022532  0.20698864  0.12649229     0.03000
H207        H  0.36371850  0.21753210  0.06886542     0.08100
H208        H  0.29347909  0.21345587  0.14603219     0.06900
N209        N  0.39494910  0.40576246  0.07912585    -0.27500
N210        N  0.39177138  0.43303795  0.09905372    -0.35300
C211        C  0.41283755  0.45645857  0.09005888     0.00900
C212        C  0.43003688  0.44328754  0.06304226     0.06900
C213        C  0.41804588  0.41108482  0.05672405    -0.06200
H214        H  0.41517591  0.48142446  0.10199346     0.07600
H215        H  0.42559135  0.39286346  0.03742706     0.08800
Cu216      Cu  0.35783484  0.43679751  0.13638239     0.44200
Cu217      Cu  0.36775167  0.36276253  0.08500010     0.42000
Cu218      Cu  0.30553791  0.36552186  0.14975081     0.43900
N219        N  0.32036882  0.43840236  0.16922809    -0.34900
N220        N  0.30029215  0.41346322  0.17352649    -0.29100
C221        C  0.27877932  0.42409748  0.19627311    -0.05200
C222        C  0.28612069  0.45701727  0.20696044     0.07000
C223        C  0.31257521  0.46503839  0.18929708     0.00800
H224        H  0.26003547  0.40854889  0.20549144     0.08500
H225        H  0.32546309  0.48862074  0.19109980     0.07500
N226        N  0.31966873  0.32127652  0.12342123    -0.36300
N227        N  0.34161369  0.32099593  0.09978600    -0.28500
C228        C  0.34641663  0.28869278  0.08929632    -0.03700
C229        C  0.32683775  0.26732187  0.10717609     0.04900
C230        C  0.31009871  0.28881173  0.12856970     0.03000
H231        H  0.36396479  0.28119568  0.07105869     0.08100
H232        H  0.29305300  0.28128620  0.14743282     0.06900
C233        C  0.23168911  0.02125554  0.28069017     0.86300
C234        C  0.25562611  0.99800197  0.29792073    -0.53900
C235        C  0.27204907  0.97901012  0.27479044     0.09200
C236        C  0.26280039  0.98498006  0.23604180     0.20200
C237        C  0.24960105  0.04279173  0.25436457    -0.54700
C238        C  0.26572820  0.02415159  0.23071289     0.09300
C239        C  0.21196287  0.99772807  0.25803428    -0.54200
C240        C  0.22796265  0.97874985  0.23457582     0.09900
H241        H  0.25979840  0.99725077  0.32605363     0.14400
H242        H  0.27596253  0.96958100  0.21702754     0.00200
H243        H  0.24949911  0.07046205  0.25413935     0.14700
H244        H  0.18721510  0.99704453  0.25958753     0.14500
O245        O  0.96619107  0.54356527  0.01251955    -0.73100
O246        O  0.03253729  0.49991596  0.45576849    -0.74100
O247        O  0.96757416  0.49809857  0.45449331    -0.62700
O248        O  0.03071242  0.54526122  0.01391648    -0.71100
O249        O  0.03165233  0.50063579  0.05014406    -0.70700
O250        O  0.96854950  0.45322943  0.49041564    -0.61900
O251        O  0.03290033  0.45515704  0.49181336    -0.74500
O252        O  0.96617311  0.49894489  0.04871547    -0.73200
Cu253      Cu  0.99922428  0.52324266  0.48293965     1.04600
Cu254      Cu  0.99984272  0.47547949  0.02164953     1.04300
C255        C  0.95576527  0.52829944  0.03952693     0.93100
C256        C  0.04281567  0.47042716  0.46451858     0.92200
C257        C  0.95848293  0.46807759  0.46275877     0.84400
C258        C  0.04111385  0.53038975  0.04139282     0.90600
O259        O  0.96828193  0.00100826  0.45456310    -0.73100
O260        O  0.02948545  0.95448308  0.01733463    -0.74100
O261        O  0.96494516  0.95562198  0.01264198    -0.62700
O262        O  0.03350779  0.00053106  0.45974690    -0.71100
O263        O  0.03136129  0.04500586  0.49562437    -0.70700
O264        O  0.96346825  0.99995190  0.04874639    -0.61900
O265        O  0.02895084  0.99876758  0.05353405    -0.74500
O266        O  0.96690539  0.04547017  0.49052424    -0.73200
Cu267      Cu  0.99910832  0.97639730  0.48479531     1.04600
Cu268      Cu  0.99762337  0.02381733  0.02343249     1.04300
C269        C  0.95790748  0.03047572  0.46259941     0.93100
C270        C  0.03899297  0.96916527  0.04514362     0.92200
C271        C  0.95343957  0.97077110  0.03902754     0.84400
C272        C  0.04307081  0.02999890  0.46934485     0.90600
N273        N  0.90614753  0.08631650  0.41377822    -0.27500
N274        N  0.90066549  0.05685950  0.39809511    -0.35300
C275        C  0.91827542  0.03241268  0.41293482     0.00900
C276        C  0.93541875  0.04727719  0.43943326     0.06900
C277        C  0.92711208  0.08142733  0.43929268    -0.06200
H278        H  0.91835800  0.00581435  0.40525265     0.07600
H279        H  0.93602979  0.10138395  0.45605367     0.08800
Cu280      Cu  0.86852545  0.05199533  0.35821074     0.44200
Cu281      Cu  0.88604601  0.13194279  0.39805315     0.42000
Cu282      Cu  0.83253055  0.13063072  0.32477150     0.43900
N283        N  0.83255895  0.05332217  0.32248145    -0.34900
N284        N  0.81964156  0.08146224  0.30972907    -0.29100
C285        C  0.79547163  0.07254569  0.28958514    -0.05200
C286        C  0.79310982  0.03725620  0.29006822     0.07000
C287        C  0.81680378  0.02598623  0.31123367     0.00800
H288        H  0.77958357  0.09044412  0.27762283     0.08500
H289        H  0.82133030  0.99987545  0.31932933     0.07500
N290        N  0.84836113  0.17543315  0.34813360    -0.36300
N291        N  0.86760189  0.17553433  0.37505438    -0.28500
C292        C  0.87416034  0.20804678  0.38357321    -0.03700
C293        C  0.85833724  0.22958503  0.36102169     0.04900
C294        C  0.84210730  0.20806968  0.33891909     0.03000
H295        H  0.88983762  0.21540339  0.40433123     0.08100
H296        H  0.82730020  0.21553657  0.31733513     0.06900
N297        N  0.91063519  0.40976569  0.41232810    -0.27500
N298        N  0.90255285  0.43945180  0.39831453    -0.35300
C299        C  0.91812018  0.46471261  0.41423959     0.00900
C300        C  0.93662598  0.45026330  0.43983659     0.06900
C301        C  0.93131518  0.41537591  0.43798940    -0.06200
H302        H  0.91599634  0.49162606  0.40774485     0.07600
H303        H  0.94217362  0.39552558  0.45353453     0.08800
Cu304      Cu  0.86994047  0.44401545  0.35903648     0.44200
Cu305      Cu  0.89350552  0.36339097  0.39437393     0.42000
Cu306      Cu  0.83695148  0.36692511  0.32249472     0.43900
N307        N  0.83459104  0.44392170  0.32269539    -0.34900
N308        N  0.82281168  0.41610259  0.30832676    -0.29100
C309        C  0.79900547  0.42532897  0.28762541    -0.05200
C310        C  0.79565477  0.46049970  0.28953691     0.07000
C311        C  0.81842286  0.47134513  0.31209496     0.00800
H312        H  0.78395709  0.40759679  0.27427494     0.08500
H313        H  0.82211802  0.49715221  0.32138221     0.07500
N314        N  0.85278418  0.32179925  0.34580855    -0.36300
N315        N  0.87299792  0.32076237  0.37181237    -0.28500
C316        C  0.87783090  0.28795885  0.38113039    -0.03700
C317        C  0.85987121  0.26728028  0.36009465     0.04900
C318        C  0.84428030  0.28956293  0.33798840     0.03000
H319        H  0.89341372  0.27979883  0.40174526     0.08100
H320        H  0.82789863  0.28288577  0.31773769     0.06900
N321        N  0.89769647  0.91468387  0.07983246    -0.27500
N322        N  0.89162820  0.94361245  0.09630720    -0.35300
C323        C  0.91025355  0.96827949  0.08404490     0.00900
C324        C  0.92866365  0.95416676  0.05855898     0.06900
C325        C  0.91996186  0.92026522  0.05649319    -0.06200
H326        H  0.91058771  0.99441766  0.09325906     0.07600
H327        H  0.92981709  0.90074079  0.04008721     0.08800
Cu328      Cu  0.85869436  0.94803986  0.13524781     0.44200
Cu329      Cu  0.87821717  0.86761576  0.09141902     0.42000
Cu330      Cu  0.82563815  0.86610138  0.16151119     0.43900
N331        N  0.82412032  0.94309780  0.17221229    -0.34900
N332        N  0.81268213  0.91312471  0.18152410    -0.29100
C333        C  0.79074605  0.91803229  0.20524145    -0.05200
C334        C  0.78792602  0.95279054  0.21136696     0.07000
C335        C  0.80950592  0.96796849  0.18991338     0.00800
H336        H  0.77759221  0.89752531  0.21677282     0.08500
H337        H  0.81429864  0.99500013  0.18732110     0.07500
N338        N  0.83997625  0.82196253  0.13657012    -0.36300
N339        N  0.85943957  0.82251529  0.11037048    -0.28500
C340        C  0.86501065  0.79017803  0.10018520    -0.03700
C341        C  0.84813155  0.76821985  0.12096555     0.04900
C342        C  0.83248034  0.78928388  0.14371511     0.03000
H343        H  0.88054614  0.78318803  0.07953916     0.08100
H344        H  0.81720409  0.78146110  0.16433044     0.06900
N345        N  0.90082835  0.58482969  0.08119216    -0.27500
N346        N  0.89492244  0.55594692  0.09811057    -0.35300
C347        C  0.91356895  0.53121406  0.08604442     0.00900
C348        C  0.93178146  0.54516845  0.06016244     0.06900
C349        C  0.92299476  0.57911825  0.05777791    -0.06200
H350        H  0.91369439  0.50495523  0.09525894     0.07600
H351        H  0.93239775  0.59844820  0.04069306     0.08800
Cu352      Cu  0.86107773  0.55124482  0.13619794     0.44200
Cu353      Cu  0.88032443  0.63183968  0.09119670     0.42000
Cu354      Cu  0.82309260  0.63150666  0.15673825     0.43900
N355        N  0.82422458  0.55495570  0.17051012    -0.34900
N356        N  0.81070007  0.58438982  0.17754110    -0.29100
C357        C  0.78802738  0.57886457  0.20029374    -0.05200
C358        C  0.78693317  0.54423196  0.20820331     0.07000
C359        C  0.81025555  0.52982635  0.18872726     0.00800
H360        H  0.77346781  0.59884959  0.21032083     0.08500
H361        H  0.81691626  0.50314211  0.18818656     0.07500
N362        N  0.83875248  0.67623121  0.13357149    -0.36300
N363        N  0.85975630  0.67645471  0.10896537    -0.28500
C364        C  0.86590683  0.70912979  0.10010305    -0.03700
C365        C  0.84794265  0.73045490  0.12024514     0.04900
C366        C  0.83098342  0.70869111  0.14111950     0.03000
H367        H  0.88279990  0.71677700  0.08113416     0.08100
H368        H  0.81466895  0.71587784  0.16085673     0.06900
N369        N  0.59791822  0.09065665  0.08414908    -0.27500
N370        N  0.60216076  0.06191775  0.10190475    -0.35300
C371        C  0.58153373  0.03857706  0.09118092     0.00900
C372        C  0.56352399  0.05324138  0.06515738     0.06900
C373        C  0.57458910  0.08628964  0.06131864    -0.06200
H374        H  0.58037892  0.01251718  0.10083226     0.07600
H375        H  0.56648219  0.10559346  0.04307513     0.08800
Cu376      Cu  0.63758966  0.05589200  0.13782795     0.44200
Cu377      Cu  0.62488691  0.13385129  0.09271533     0.42000
Cu378      Cu  0.69037298  0.12739247  0.15317727     0.43900
N379        N  0.67620494  0.05344364  0.16966065    -0.34900
N380        N  0.69615751  0.07846451  0.17447675    -0.29100
C381        C  0.71819832  0.06746758  0.19683448    -0.05200
C382        C  0.71140821  0.03422026  0.20674278     0.07000
C383        C  0.68468032  0.02629305  0.18908472     0.00800
H384        H  0.73676483  0.08310023  0.20662012     0.08500
H385        H  0.67192583  0.00263887  0.19074560     0.07500
N386        N  0.67567778  0.17315812  0.13004507    -0.36300
N387        N  0.65225094  0.17498527  0.10792093    -0.28500
C388        C  0.64768785  0.20787584  0.09883582    -0.03700
C389        C  0.66901394  0.22794594  0.11609738     0.04900
C390        C  0.68646802  0.20506352  0.13568221     0.03000
H391        H  0.62937304  0.21663182  0.08176376     0.08100
H392        H  0.70503579  0.21119856  0.15342505     0.06900
N393        N  0.60157714  0.40307968  0.08402492    -0.27500
N394        N  0.60459788  0.43043487  0.10388594    -0.35300
C395        C  0.58307112  0.45350069  0.09485820     0.00900
C396        C  0.56570312  0.44004305  0.06780724     0.06900
C397        C  0.57807028  0.40800361  0.06154189    -0.06200
H398        H  0.58094206  0.47868128  0.10628486     0.07600
H399        H  0.57086144  0.38989009  0.04179658     0.08800
Cu400      Cu  0.63979458  0.43532356  0.13993602     0.44200
Cu401      Cu  0.63031616  0.36115172  0.08989422     0.42000
Cu402      Cu  0.69441678  0.36538633  0.15346916     0.43900
N403        N  0.67855295  0.43858995  0.17108335    -0.34900
N404        N  0.69935703  0.41429122  0.17553888    -0.29100
C405        C  0.72130341  0.42611860  0.19753720    -0.05200
C406        C  0.71346332  0.45909770  0.20749156     0.07000
C407        C  0.68630964  0.46595987  0.19021596     0.00800
H408        H  0.74062781  0.41128215  0.20693645     0.08500
H409        H  0.67281877  0.48910919  0.19182579     0.07500
N410        N  0.67929076  0.32023915  0.12906403    -0.36300
N411        N  0.65666799  0.31961525  0.10578618    -0.28500
C412        C  0.65079829  0.28706313  0.09693495    -0.03700
C413        C  0.67033408  0.26578463  0.11549795     0.04900
C414        C  0.68826707  0.28766693  0.13557301     0.03000
H415        H  0.63244727  0.27940126  0.07945871     0.08100
H416        H  0.70555645  0.28038692  0.15461947     0.06900
N417        N  0.59274710  0.91268739  0.43088376    -0.27500
N418        N  0.60132029  0.94156891  0.41566983    -0.35300
C419        C  0.58401064  0.96743720  0.42754749     0.00900
C420        C  0.56389914  0.95425332  0.45174306     0.06900
C421        C  0.57005017  0.91953549  0.45328602    -0.06200
H422        H  0.58617998  0.99388993  0.41945416     0.07600
H423        H  0.55853488  0.90056305  0.46904188     0.08800
Cu424      Cu  0.63673608  0.94492914  0.38038906     0.44200
Cu425      Cu  0.61111198  0.86486753  0.41956687     0.42000
Cu426      Cu  0.67042731  0.86415358  0.35499710     0.43900
N427        N  0.67298179  0.94088158  0.34632713    -0.34900
N428        N  0.68502077  0.91141277  0.33665884    -0.29100
C429        C  0.70701170  0.91747324  0.31309909    -0.05200
C430        C  0.70891956  0.95253873  0.30763354     0.07000
C431        C  0.68712088  0.96648143  0.32939263     0.00800
H432        H  0.72011239  0.89757133  0.30060438     0.08500
H433        H  0.68133875  0.99329159  0.33188096     0.07500
N434        N  0.65279627  0.81999695  0.37742619    -0.36300
N435        N  0.63126974  0.82010686  0.40146519    -0.28500
C436        C  0.62500877  0.78754001  0.41067540    -0.03700
C437        C  0.64347424  0.76596423  0.39142279     0.04900
C438        C  0.66075557  0.78744936  0.37062349     0.03000
H439        H  0.60810090  0.78015129  0.42972548     0.08100
H440        H  0.67785125  0.78002539  0.35185308     0.06900
N441        N  0.59904599  0.58111976  0.43774555    -0.27500
N442        N  0.60716250  0.55213611  0.42260419    -0.35300
C443        C  0.58905035  0.52676166  0.43429545     0.00900
C444        C  0.56887891  0.54042424  0.45815982     0.06900
C445        C  0.57595491  0.57484617  0.45983467    -0.06200
H446        H  0.59038379  0.50038733  0.42590969     0.07600
H447        H  0.56446330  0.59415950  0.47505257     0.08800
Cu448      Cu  0.64187691  0.54854498  0.38592633     0.44200
Cu449      Cu  0.61712560  0.62881159  0.42550436     0.42000
Cu450      Cu  0.67202326  0.63019547  0.35634977     0.43900
N451        N  0.67537940  0.55339813  0.34791092    -0.34900
N452        N  0.68592546  0.58318303  0.33679189    -0.29100
C453        C  0.70651920  0.57770927  0.31148438    -0.05200
C454        C  0.70922960  0.54269810  0.30637563     0.07000
C455        C  0.68916167  0.52818807  0.33007369     0.00800
H456        H  0.71850842  0.59792815  0.29799213     0.08500
H457        H  0.68468920  0.50118337  0.33374879     0.07500
N458        N  0.65506822  0.67427403  0.37946606    -0.36300
N459        N  0.63490687  0.67386545  0.40500397    -0.28500
C460        C  0.62780165  0.70633563  0.41346980    -0.03700
C461        C  0.64436406  0.72820098  0.39224734     0.04900
C462        C  0.66143203  0.70696715  0.37107986     0.03000
H463        H  0.61150609  0.71344484  0.43326743     0.08100
H464        H  0.67699450  0.71466605  0.35066209     0.06900
C465        C  0.72911257  0.52352179  0.28081449     0.86300
C466        C  0.75242335  0.50009669  0.29909223    -0.53900
C467        C  0.76992702  0.48151616  0.27672092     0.09200
C468        C  0.76257958  0.48798483  0.23775484     0.20200
C469        C  0.74827293  0.54562252  0.25593535    -0.54700
C470        C  0.76600447  0.52723297  0.23335133     0.09300
C471        C  0.71065512  0.50017780  0.25653642    -0.54200
C472        C  0.72794133  0.48142797  0.23403075     0.09900
H473        H  0.75535436  0.49891170  0.32738286     0.14400
H474        H  0.77674838  0.47273854  0.21958846     0.00200
H475        H  0.74823875  0.57330815  0.25647728     0.14700
H476        H  0.68589484  0.49874955  0.25703857     0.14500
C477        C  0.72851767  0.97219542  0.28222993     0.86300
C478        C  0.70947202  0.99385978  0.25669574    -0.53900
C479        C  0.72631769  0.01292993  0.23398499     0.09200
C480        C  0.76113558  0.00837832  0.23872168     0.20200
C481        C  0.74911430  0.95057187  0.25872067    -0.54700
C482        C  0.76633265  0.96931284  0.23583614     0.09300
C483        C  0.75037053  0.99726600  0.30023190    -0.54200
C484        C  0.76751621  0.01611474  0.27757739     0.09900
H485        H  0.68468147  0.99403858  0.25659276     0.14400
H486        H  0.77493801  0.02392174  0.22034136     0.00200
H487        H  0.75024183  0.92292272  0.26024527     0.14700
H488        H  0.75297719  0.99896563  0.32851038     0.14500
O489        O  0.46451431  0.05054346  0.51261086    -0.73100
O490        O  0.53135757  0.00221083  0.96071962    -0.74100
O491        O  0.46627713  0.00252470  0.95710971    -0.62700
O492        O  0.52950005  0.05060305  0.51620894    -0.71100
O493        O  0.52867641  0.00748695  0.55425052    -0.70700
O494        O  0.46518717  0.95953903  0.99533658    -0.61900
O495        O  0.52939390  0.95912465  0.99878880    -0.74500
O496        O  0.46317987  0.00746329  0.55072029    -0.73200
Cu497      Cu  0.49797264  0.02800777  0.98534711     1.04600
Cu498      Cu  0.49657999  0.98202555  0.52623304     1.04300
C499        C  0.45301271  0.03621678  0.53956056     0.93100
C500        C  0.54054225  0.97283109  0.97135776     0.92200
C501        C  0.45598775  0.97340014  0.96676264     0.84400
C502        C  0.53931708  0.03641100  0.54435085     0.90600
O503        O  0.46587271  0.48855112  0.55602683    -0.73100
O504        O  0.53341590  0.53619459  0.00454590    -0.74100
O505        O  0.46897481  0.53862585  0.00176133    -0.62700
O506        O  0.53122964  0.48638566  0.55873574    -0.71100
O507        O  0.53108179  0.44456831  0.51956965    -0.70700
O508        O  0.46842956  0.49674788  0.96265788    -0.61900
O509        O  0.53387250  0.49434352  0.96541398    -0.74500
O510        O  0.46608324  0.44670639  0.51690761    -0.73200
Cu511      Cu  0.49985181  0.51379683  0.53171360     1.04600
Cu512      Cu  0.49982922  0.46913422  0.98973406     1.04300
C513        C  0.45521570  0.46026079  0.54450575     0.93100
C514        C  0.54429518  0.52274628  0.97691839     0.92200
C515        C  0.45895253  0.52590155  0.97315971     0.84400
C516        C  0.54134987  0.45764687  0.54791527     0.90600
N517        N  0.09793917  0.08709260  0.92812522    -0.27500
N518        N  0.10678604  0.05731312  0.91533015    -0.35300
C519        C  0.08865084  0.03238674  0.92787074     0.00900
C520        C  0.06763224  0.04713021  0.94998331     0.06900
C521        C  0.07423563  0.08177848  0.94965027    -0.06200
H522        H  0.09071798  0.00555121  0.92145454     0.07600
H523        H  0.06216132  0.10178873  0.96331079     0.08800
Cu524      Cu  0.14297398  0.05190793  0.88132209     0.44200
Cu525      Cu  0.11666126  0.13405028  0.91345420     0.42000
Cu526      Cu  0.17344867  0.13179575  0.84652829     0.43900
N527        N  0.17827284  0.05461821  0.84580444    -0.34900
N528        N  0.18880193  0.08367898  0.83287458    -0.29100
C529        C  0.21001378  0.07678033  0.80881064    -0.05200
C530        C  0.21303424  0.04154611  0.80628331     0.07000
C531        C  0.19270864  0.02838498  0.83039455     0.00800
H532        H  0.22153507  0.09628724  0.79383257     0.08500
H533        H  0.18784480  0.00163823  0.83524932     0.07500
N534        N  0.15546758  0.17697695  0.86531188    -0.36300
N535        N  0.13490746  0.17791530  0.89040212    -0.28500
C536        C  0.12746671  0.21077129  0.89647010    -0.03700
C537        C  0.14408955  0.23142750  0.87404897     0.04900
C538        C  0.16164559  0.20911964  0.85468642     0.03000
H539        H  0.11076136  0.21895806  0.91541788     0.08100
H540        H  0.17748568  0.21566193  0.83419146     0.06900
N541        N  0.09293906  0.41327916  0.91660163    -0.27500
N542        N  0.09913685  0.44257061  0.90076173    -0.35300
C543        C  0.08267577  0.46764835  0.91569735     0.00900
C544        C  0.06562001  0.45340708  0.94244204     0.06900
C545        C  0.07275179  0.41890662  0.94228665    -0.06200
H546        H  0.08297739  0.49425450  0.90756398     0.07600
H547        H  0.06325146  0.39918617  0.95883506     0.08800
Cu548      Cu  0.13036874  0.44618652  0.86004200     0.44200
Cu549      Cu  0.11087379  0.36684865  0.90084819     0.42000
Cu550      Cu  0.16488327  0.36710692  0.82842638     0.43900
N551        N  0.16535927  0.44437275  0.82340202    -0.34900
N552        N  0.17765009  0.41589010  0.81119412    -0.29100
C553        C  0.20118665  0.42422436  0.79020703    -0.05200
C554        C  0.20389867  0.45953039  0.78944656     0.07000
C555        C  0.18098520  0.47135190  0.81095070     0.00800
H556        H  0.21661840  0.40592109  0.77858903     0.08500
H557        H  0.17701152  0.49763705  0.81850344     0.07500
N558        N  0.14981783  0.32280304  0.85391737    -0.36300
N559        N  0.13026517  0.32313614  0.88012656    -0.28500
C560        C  0.12533245  0.29088688  0.89105995    -0.03700
C561        C  0.14262611  0.26903990  0.87096989     0.04900
C562        C  0.15790529  0.29009792  0.84764095     0.03000
H563        H  0.11027338  0.28393211  0.91224013     0.08100
H564        H  0.17374049  0.28226705  0.82762641     0.06900
N565        N  0.40572603  0.91450556  0.92048808    -0.27500
N566        N  0.40065825  0.94286282  0.90233697    -0.35300
C567        C  0.41749121  0.96833478  0.91616624     0.00900
C568        C  0.43370954  0.95535447  0.94454039     0.06900
C569        C  0.42566168  0.92117897  0.94658861    -0.06200
H570        H  0.41791842  0.99434149  0.90625095     0.07600
H571        H  0.43424232  0.90237877  0.96504397     0.08800
Cu572      Cu  0.37056203  0.94510506  0.86007920     0.44200
Cu573      Cu  0.38671451  0.86777229  0.90720291     0.42000
Cu574      Cu  0.33385076  0.86606453  0.83251832     0.43900
N575        N  0.33637705  0.94272413  0.82212060    -0.34900
N576        N  0.32275783  0.91425701  0.81173293    -0.29100
C577        C  0.29927616  0.92265201  0.79013370    -0.05200
C578        C  0.29817454  0.95799181  0.78688220     0.07000
C579        C  0.32187856  0.96972988  0.80773581     0.00800
H580        H  0.28258123  0.90463336  0.78016238     0.08500
H581        H  0.32668796  0.99612228  0.81421253     0.07500
N582        N  0.34868688  0.82243051  0.85991504    -0.36300
N583        N  0.36781273  0.82341641  0.88694532    -0.28500
C584        C  0.37335181  0.79133617  0.89827681    -0.03700
C585        C  0.35690451  0.76892419  0.87756626     0.04900
C586        C  0.34146881  0.78949056  0.85352226     0.03000
H587        H  0.38847570  0.78485494  0.91988008     0.08100
H588        H  0.32639923  0.78112457  0.83264273     0.06900
N589        N  0.40702388  0.58632858  0.93013692    -0.27500
N590        N  0.39855130  0.55727709  0.91524354    -0.35300
C591        C  0.41600324  0.53159465  0.92785991     0.00900
C592        C  0.43614630  0.54491171  0.95224602     0.06900
C593        C  0.42981924  0.57965761  0.95315618    -0.06200
H594        H  0.41374192  0.50504586  0.92031282     0.07600
H595        H  0.44119018  0.59872066  0.96902116     0.08800
Cu596      Cu  0.36291890  0.55272563  0.87947482     0.44200
Cu597      Cu  0.38817297  0.63398687  0.91719458     0.42000
Cu598      Cu  0.32966853  0.63151801  0.84937387     0.43900
N599        N  0.32692272  0.55472853  0.84392350    -0.34900
N600        N  0.31513801  0.58385492  0.83242914    -0.29100
C601        C  0.29328003  0.57710234  0.80852836    -0.05200
C602        C  0.29105864  0.54184720  0.80472765     0.07000
C603        C  0.31266182  0.52857597  0.82785429     0.00800
H604        H  0.28030984  0.59669808  0.79494594     0.08500
H605        H  0.31815356  0.50182080  0.83195836     0.07500
N606        N  0.34696199  0.67653810  0.87008097    -0.36300
N607        N  0.36795241  0.67767575  0.89519920    -0.28500
C608        C  0.37440090  0.71069773  0.90208133    -0.03700
C609        C  0.35670894  0.73120963  0.88013328     0.04900
C610        C  0.33959513  0.70865795  0.86026151     0.03000
H611        H  0.39117569  0.71910580  0.92112678     0.08100
H612        H  0.32322315  0.71504916  0.83985852     0.06900
N613        N  0.09352035  0.91184752  0.58778750    -0.27500
N614        N  0.09947475  0.94045010  0.60483186    -0.35300
C615        C  0.08047874  0.96526028  0.59311017     0.00900
C616        C  0.06189495  0.95152620  0.56722023     0.06900
C617        C  0.07082920  0.91765288  0.56454280    -0.06200
H618        H  0.08090211  0.99155352  0.60190228     0.07600
H619        H  0.06174424  0.89870847  0.54674414     0.08800
Cu620      Cu  0.13521857  0.94383780  0.64075039     0.44200
Cu621      Cu  0.11694920  0.86645958  0.59700862     0.42000
Cu622      Cu  0.18294735  0.86761436  0.65594222     0.43900
N623        N  0.17468267  0.94276218  0.67137831    -0.34900
N624        N  0.19282393  0.91596613  0.67620128    -0.29100
C625        C  0.21593853  0.92494347  0.69799611    -0.05200
C626        C  0.21175638  0.95878418  0.70747158     0.07000
C627        C  0.18544941  0.96910433  0.69015583     0.00800
H628        H  0.23333959  0.90761418  0.70782927     0.08500
H629        H  0.17439735  0.99383961  0.69186013     0.03500
N630        N  0.16457326  0.82300912  0.63438033    -0.36300
N631        N  0.14075553  0.82300410  0.61277771    -0.28500
C632        C  0.13361501  0.79053702  0.60461650    -0.03700
C633        C  0.15374730  0.76889257  0.62193271     0.04900
C634        C  0.17312772  0.79033216  0.64056559     0.03000
H635        H  0.11459915  0.78324804  0.58795824     0.08100
H636        H  0.19162958  0.78275323  0.65791212     0.06900
N637        N  0.09485270  0.58751072  0.58485379    -0.27500
N638        N  0.10138155  0.55836633  0.60111511    -0.35300
C639        C  0.08294647  0.53363688  0.58858290     0.00900
C640        C  0.06421735  0.54782981  0.56300699     0.06900
C641        C  0.07239404  0.58196293  0.56128445    -0.06200
H642        H  0.08366469  0.50710238  0.59689407     0.07600
H643        H  0.06272522  0.60136344  0.54421621     0.08800
Cu644      Cu  0.13649378  0.55256797  0.63771909     0.44200
Cu645      Cu  0.11605632  0.63399993  0.59516718     0.42000
Cu646      Cu  0.17909624  0.63081402  0.65465712     0.43900
N647        N  0.17536420  0.55436101  0.66935412    -0.34900
N648        N  0.19074744  0.58297344  0.67483800    -0.29100
C649        C  0.21414166  0.57640413  0.69676695    -0.05200
C650        C  0.21363300  0.54199880  0.70583285     0.07000
C651        C  0.18875696  0.52872949  0.68775093     0.00800
H652        H  0.23002776  0.59568531  0.70586464     0.08500
H653        H  0.18041057  0.50270549  0.68871927     0.07500
N654        N  0.16247209  0.67650988  0.63386187    -0.36300
N655        N  0.13909201  0.67755809  0.61174402    -0.28500
C656        C  0.13279282  0.71040774  0.60377842    -0.03700
C657        C  0.15318226  0.73110540  0.62177779     0.04900
C658        C  0.17171407  0.70873135  0.64059649     0.03000
H659        H  0.11434024  0.71860366  0.58663055     0.08100
H660        H  0.19015033  0.71535868  0.65836847     0.06900
C661        C  0.27094842  0.52164760  0.77988692     0.86300
C662        C  0.28914038  0.49761386  0.75640678    -0.53900
C663        C  0.27166285  0.47861546  0.73396487     0.09200
C664        C  0.23699377  0.48554113  0.73714665     0.20200
C665        C  0.25182358  0.54330142  0.75428361    -0.54700
C666        C  0.23395247  0.52475356  0.73181855     0.09300
C667        C  0.24764974  0.49885124  0.79843115    -0.54200
C668        C  0.22977505  0.47998253  0.77627720     0.09900
H669        H  0.31391256  0.49631495  0.75698145     0.14400
H670        H  0.22258686  0.47021031  0.71900837     0.00200
H671        H  0.25206458  0.57096771  0.75409069     0.14700
H672        H  0.24492688  0.49839089  0.82671619     0.14500
N673        N  0.39184290  0.08940806  0.57355240    -0.27500
N674        N  0.38706820  0.06054043  0.59090910    -0.35300
C675        C  0.40839461  0.03752395  0.58187790     0.00900
C676        C  0.42736409  0.05250553  0.55753085     0.06900
C677        C  0.41619688  0.08534454  0.55271972    -0.06200
H678        H  0.40970087  0.01160870  0.59195945     0.07600
H679        H  0.42519054  0.10489915  0.53557159     0.08800
Cu680      Cu  0.35185279  0.05296792  0.62591433     0.44200
Cu681      Cu  0.36622418  0.13369256  0.58011259     0.42000
Cu682      Cu  0.30708773  0.12937927  0.64361830     0.43900
N683        N  0.31597542  0.05389910  0.66080645    -0.34900
N684        N  0.30004126  0.08195566  0.66699965    -0.29100
C685        C  0.27962674  0.07523729  0.69199052    -0.05200
C686        C  0.28274870  0.04132875  0.70228593     0.07000
C687        C  0.30592084  0.02844808  0.68173439     0.00800
H688        H  0.26392217  0.09405074  0.70213984     0.08500
H689        H  0.31548442  0.00291704  0.68270473     0.07500
N690        N  0.31975021  0.17491174  0.61956668    -0.36300
N691        N  0.34142281  0.17623747  0.59576213    -0.28500
C692        C  0.34625475  0.20908824  0.58683774    -0.03700
C693        C  0.32681421  0.22954779  0.60605183     0.04900
C694        C  0.31022641  0.20698828  0.62649104     0.03000
H695        H  0.36372823  0.21753669  0.56885540     0.08100
H696        H  0.29347489  0.21345767  0.64603703     0.06900
N697        N  0.39494899  0.40576269  0.57912608    -0.27500
N698        N  0.39177139  0.43303803  0.59905381    -0.35300
C699        C  0.41283755  0.45645885  0.59005900     0.00900
C700        C  0.43003681  0.44328776  0.56304248     0.06900
C701        C  0.41804641  0.41108364  0.55672280    -0.06200
H702        H  0.41517591  0.48142400  0.60199336     0.07600
H703        H  0.42558893  0.39286931  0.53743315     0.08800
Cu704      Cu  0.35783489  0.43679757  0.63638242     0.44200
Cu705      Cu  0.36775178  0.36276255  0.58500019     0.42000
Cu706      Cu  0.30553810  0.36552187  0.64975084     0.43900
N707        N  0.32036900  0.43840236  0.66922808    -0.34900
N708        N  0.30029254  0.41346341  0.67352641    -0.29100
C709        C  0.27877779  0.42409630  0.69627386    -0.05200
C710        C  0.28612096  0.45701744  0.70696030     0.07000
C711        C  0.31257551  0.46503902  0.68929698     0.00800
H712        H  0.26004307  0.40855518  0.70548800     0.08500
H713        H  0.32546216  0.48861891  0.69109981     0.07500
N714        N  0.31966898  0.32127662  0.62342104    -0.36300
N715        N  0.34161377  0.32099603  0.59978603    -0.28500
C716        C  0.34641735  0.28869254  0.58929558    -0.03700
C717        C  0.32683790  0.26732193  0.60717596     0.04900
C718        C  0.31009758  0.28881121  0.62857068     0.03000
H719        H  0.36396240  0.28119681  0.57106140     0.08100
H720        H  0.29305822  0.28128835  0.64742727     0.06900
C721        C  0.23168904  0.02125550  0.78069024     0.86300
C722        C  0.25562611  0.99800191  0.79792054    -0.53900
C723        C  0.27204915  0.97901012  0.77479045     0.09200
C724        C  0.26280039  0.98498003  0.73604181     0.20200
C725        C  0.24960099  0.04279192  0.75436455    -0.54700
C726        C  0.26572813  0.02415153  0.73071285     0.09300
C727        C  0.21196343  0.99772810  0.75803432    -0.54200
C728        C  0.22796254  0.97874981  0.73457588     0.09900
H729        H  0.25979865  0.99725092  0.82605433     0.14400
H730        H  0.27596254  0.96958098  0.71702737     0.00200
H731        H  0.24949913  0.07046113  0.75413929     0.14700
H732        H  0.18721247  0.99704458  0.75958795     0.14500
O733        O  0.96619109  0.54356526  0.51251956    -0.73100
O734        O  0.03253720  0.49991598  0.95576852    -0.74100
O735        O  0.96757414  0.49809859  0.95449340    -0.62700
O736        O  0.03071245  0.54526116  0.51391650    -0.71100
O737        O  0.03165231  0.50063569  0.55014406    -0.70700
O738        O  0.96854941  0.45322942  0.99041560    -0.61900
O739        O  0.03290034  0.45515707  0.99181336    -0.74500
O740        O  0.96617312  0.49894485  0.54871541    -0.73200
Cu741      Cu  0.99922423  0.52324271  0.98293974     1.04600
Cu742      Cu  0.99984270  0.47547941  0.52164941     1.04300
C743        C  0.95576526  0.52829936  0.53952690     0.93100
C744        C  0.04281571  0.47042721  0.96451870     0.92200
C745        C  0.95848294  0.46807753  0.96275874     0.84400
C746        C  0.04111384  0.53038968  0.54139286     0.90600
O747        O  0.96828186  0.00100826  0.95456307    -0.73100
O748        O  0.02948546  0.95448313  0.51733465    -0.74100
O749        O  0.96494512  0.95562204  0.51264213    -0.62700
O750        O  0.03350772  0.00053100  0.95974695    -0.71100
O751        O  0.03136130  0.04500581  0.99562433    -0.70700
O752        O  0.96346832  0.99995204  0.54874648    -0.61900
O753        O  0.02895084  0.99876760  0.55353412    -0.74500
O754        O  0.96690544  0.04547019  0.99052431    -0.73200
Cu755      Cu  0.99910828  0.97639724  0.98479528     1.04600
Cu756      Cu  0.99762336  0.02381739  0.52343253     1.04300
C757        C  0.95790746  0.03047572  0.96259946     0.93100
C758        C  0.03899294  0.96916530  0.54514370     0.92200
C759        C  0.95343950  0.97077124  0.53902757     0.84400
C760        C  0.04307074  0.02999886  0.96934484     0.90600
N761        N  0.90614748  0.08631650  0.91377828    -0.27500
N762        N  0.90066545  0.05685955  0.89809519    -0.35300
C763        C  0.91827536  0.03241212  0.91293476     0.00900
C764        C  0.93541872  0.04727727  0.93943335     0.06900
C765        C  0.92711204  0.08142736  0.93929277    -0.06200
H766        H  0.91835797  0.00581684  0.90525335     0.07600
H767        H  0.93602971  0.10138408  0.95605376     0.08800
Cu768      Cu  0.86852553  0.05199514  0.85821075     0.44200
Cu769      Cu  0.88604601  0.13194273  0.89805306     0.42000
Cu770      Cu  0.83253071  0.13063076  0.82477145     0.43900
N771        N  0.83255899  0.05332220  0.82248148    -0.34900
N772        N  0.81964169  0.08146219  0.80972911    -0.29100
C773        C  0.79547133  0.07254602  0.78958502    -0.05200
C774        C  0.79310984  0.03725619  0.79006821     0.07000
C775        C  0.81680392  0.02598578  0.81123372     0.00800
H776        H  0.77958519  0.09044265  0.77762382     0.08500
H777        H  0.82132986  0.99987738  0.81932876     0.07500
N778        N  0.84836116  0.17543323  0.84813366    -0.36300
N779        N  0.86760206  0.17553439  0.87505449    -0.28500
C780        C  0.87415985  0.20804642  0.88357239    -0.03700
C781        C  0.85833742  0.22958509  0.86102190     0.04900
C782        C  0.84210756  0.20806964  0.83891954     0.03000
H783        H  0.88984084  0.21540470  0.90433543     0.08100
H784        H  0.82729961  0.21553696  0.81733430     0.06900
N785        N  0.91063511  0.40976596  0.91232769    -0.27500
N786        N  0.90255289  0.43945194  0.89831427    -0.35300
C787        C  0.91812029  0.46471246  0.91423946     0.00900
C788        C  0.93662589  0.45026365  0.93983632     0.06900
C789        C  0.93131620  0.41537412  0.93799079    -0.06200
H790        H  0.91599634  0.49162779  0.90774436     0.07600
H791        H  0.94216904  0.39553409  0.95352780     0.08800
Cu792      Cu  0.86994043  0.44401549  0.85903647     0.44200
Cu793      Cu  0.89350553  0.36339106  0.89437381     0.42000
Cu794      Cu  0.83695160  0.36692511  0.82249478     0.43900
N795        N  0.83459107  0.44392183  0.82269534    -0.34900
N796        N  0.82281168  0.41610261  0.80832685    -0.29100
C797        C  0.79900537  0.42532886  0.78762540    -0.05200
C798        C  0.79565481  0.46049977  0.78953703     0.07000
C799        C  0.81842270  0.47134461  0.81209486     0.00800
H800        H  0.78395756  0.40759762  0.77427554     0.08500
H801        H  0.82211840  0.49715476  0.82138288     0.07500
N802        N  0.85278428  0.32179918  0.84580860    -0.36300
N803        N  0.87299809  0.32076232  0.87181247    -0.28500
C804        C  0.87783075  0.28795905  0.88112999    -0.03700
C805        C  0.85987134  0.26728029  0.86009476     0.04900
C806        C  0.84428043  0.28956292  0.83798866     0.03000
H807        H  0.89341544  0.27979810  0.90174746     0.08100
H808        H  0.82789837  0.28288537  0.81773732     0.06900
N809        N  0.89769636  0.91468404  0.57983269    -0.27500
N810        N  0.89162812  0.94361256  0.59630723    -0.35300
C811        C  0.91025360  0.96827942  0.58404503     0.00900
C812        C  0.92866354  0.95416708  0.55855917     0.06900
C813        C  0.91996242  0.92026406  0.55649216    -0.06200
H814        H  0.91058753  0.99441865  0.59325939     0.07600
H815        H  0.92981420  0.90074638  0.54009194     0.08800
Cu816      Cu  0.85869434  0.94803991  0.63524787     0.44200
Cu817      Cu  0.87821709  0.86761577  0.59141893     0.42000
Cu818      Cu  0.82563804  0.86610151  0.66151109     0.43900
N819        N  0.82412039  0.94309813  0.67221239    -0.34900
N820        N  0.81268204  0.91312484  0.68152411    -0.29100
C821        C  0.79074630  0.91803281  0.70524124    -0.05200
C822        C  0.78792606  0.95279078  0.71136710     0.07000
C823        C  0.80950559  0.96796670  0.68991362     0.00800
H824        H  0.77759111  0.89752379  0.71677373     0.08500
H825        H  0.81430020  0.99500839  0.68732059     0.07500
N826        N  0.83997610  0.82196260  0.63657028    -0.36300
N827        N  0.85943945  0.82251527  0.61037063    -0.28500
C828        C  0.86501086  0.79017771  0.60018492    -0.03700
C829        C  0.84813139  0.76821982  0.62096590     0.04900
C830        C  0.83248077  0.78928431  0.64371430     0.03000
H831        H  0.88054415  0.78318850  0.57954201     0.08100
H832        H  0.81720143  0.78145968  0.66433435     0.06900
N833        N  0.90082842  0.58482974  0.58119199    -0.27500
N834        N  0.89492240  0.55594689  0.59811043    -0.35300
C835        C  0.91356901  0.53121386  0.58604448     0.00900
C836        C  0.93178147  0.54516856  0.56016227     0.06900
C837        C  0.92299426  0.57911737  0.55777857    -0.06200
H838        H  0.91369438  0.50495620  0.59525836     0.07600
H839        H  0.93239967  0.59845239  0.54068951     0.08800
Cu840      Cu  0.86107773  0.55124485  0.63619793     0.44200
Cu841      Cu  0.88032432  0.63183965  0.59119680     0.42000
Cu842      Cu  0.82309254  0.63150668  0.65673834     0.43900
N843        N  0.82422445  0.55495607  0.67051005    -0.34900
N844        N  0.81070007  0.58438996  0.67754110    -0.29100
C845        C  0.78802717  0.57886490  0.70029394    -0.05200
C846        C  0.78693310  0.54423220  0.70820338     0.07000
C847        C  0.81025588  0.52982434  0.68872716     0.00800
H848        H  0.77346852  0.59884866  0.71032046     0.08500
H849        H  0.81691384  0.50315175  0.68818686     0.07500
N850        N  0.83875223  0.67623125  0.63357182    -0.36300
N851        N  0.85975599  0.67645459  0.60896576    -0.28500
C852        C  0.86590801  0.70913039  0.60010176    -0.03700
C853        C  0.84794229  0.73045487  0.62024558     0.04900
C854        C  0.83098396  0.70869073  0.64111886     0.03000
H855        H  0.88279364  0.71677425  0.58114113     0.08100
H856        H  0.81466526  0.71587914  0.66086139     0.06900
N857        N  0.59791817  0.09065661  0.58414913    -0.27500
N858        N  0.60216072  0.06191777  0.60190476    -0.35300
C859        C  0.58153372  0.03857689  0.59118094     0.00900
C860        C  0.56352394  0.05324133  0.56515744     0.06900
C861        C  0.57458884  0.08629000  0.56131838    -0.06200
H862        H  0.58037892  0.01251782  0.60083200     0.07600
H863        H  0.56648287  0.10559187  0.54307661     0.08800
Cu864      Cu  0.63758967  0.05589200  0.63782787     0.44200
Cu865      Cu  0.62488686  0.13385129  0.59271524     0.42000
Cu866      Cu  0.69037293  0.12739253  0.65317731     0.43900
N867        N  0.67620496  0.05344365  0.66966063    -0.34900
N868        N  0.69615759  0.07846456  0.67447676    -0.29100
C869        C  0.71819779  0.06746721  0.69683429    -0.05200
C870        C  0.71140816  0.03422030  0.70674273     0.07000
C871        C  0.68468022  0.02629307  0.68908472     0.00800
H872        H  0.73676659  0.08310170  0.70662104     0.08500
H873        H  0.67192576  0.00263858  0.69074550     0.07500
N874        N  0.67567774  0.17315819  0.63004505    -0.36300
N875        N  0.65225074  0.17498543  0.60792076    -0.28500
C876        C  0.64768890  0.20787532  0.59883681    -0.03700
C877        C  0.66901379  0.22794602  0.61609723     0.04900
C878        C  0.68646767  0.20506336  0.63568164     0.03000
H879        H  0.62936770  0.21663432  0.58175874     0.08100
H880        H  0.70503708  0.21119909  0.65342655     0.06900
N881        N  0.60157713  0.40307971  0.58402500    -0.27500
N882        N  0.60459790  0.43043484  0.60388599    -0.35300
C883        C  0.58307120  0.45350091  0.59485828     0.00900
C884        C  0.56570315  0.44004308  0.56780730     0.06900
C885        C  0.57807017  0.40800350  0.56154183    -0.06200
H886        H  0.58094222  0.47868028  0.60628453     0.07600
H887        H  0.57086164  0.38989085  0.54179732     0.08800
Cu888      Cu  0.63979462  0.43532357  0.63993599     0.44200
Cu889      Cu  0.63031616  0.36115169  0.58989413     0.42000
Cu890      Cu  0.69441676  0.36538634  0.65346921     0.43900
N891        N  0.67855293  0.43859008  0.67108329    -0.34900
N892        N  0.69935685  0.41429134  0.67553887    -0.29100
C893        C  0.72130436  0.42611788  0.69753777    -0.05200
C894        C  0.71346314  0.45909785  0.70749154     0.07000
C895        C  0.68630969  0.46595971  0.69021598     0.00800
H896        H  0.74062314  0.41128583  0.70693425     0.08500
H897        H  0.67281804  0.48911051  0.69182576     0.07500
N898        N  0.67929088  0.32023912  0.62906400    -0.36300
N899        N  0.65666808  0.31961526  0.60578610    -0.28500
C900        C  0.65079810  0.28706312  0.59693474    -0.03700
C901        C  0.67033422  0.26578468  0.61549790     0.04900
C902        C  0.68826675  0.28766711  0.63557252     0.03000
H903        H  0.63244786  0.27940163  0.57945904     0.08100
H904        H  0.70555830  0.28038627  0.65462126     0.06900
N905        N  0.59274709  0.91268740  0.93088378    -0.27500
N906        N  0.60132025  0.94156904  0.91566977    -0.35300
C907        C  0.58401048  0.96743652  0.92754759     0.00900
C908        C  0.56389913  0.95425341  0.95174301     0.06900
C909        C  0.57005052  0.91953590  0.95328586    -0.06200
H910        H  0.58618012  0.99389327  0.91945317     0.07600
H911        H  0.55853406  0.90056176  0.96904299     0.08800
Cu912      Cu  0.63673600  0.94492914  0.88038893     0.44200
Cu913      Cu  0.61111200  0.86486749  0.91956690     0.42000
Cu914      Cu  0.67042727  0.86415360  0.85499695     0.43900
N915        N  0.67298182  0.94088157  0.84632721    -0.34900
N916        N  0.68502069  0.91141282  0.83665891    -0.29100
C917        C  0.70701215  0.91747265  0.81309873    -0.05200
C918        C  0.70891955  0.95253884  0.80763364     0.07000
C919        C  0.68712088  0.96648148  0.82939270     0.00800
H920        H  0.72011045  0.89757420  0.80060621     0.08500
H921        H  0.68133878  0.99329135  0.83188113     0.07500
N922        N  0.65279664  0.81999673  0.87742575    -0.36300
N923        N  0.63126980  0.82010674  0.90146502    -0.28500
C924        C  0.62500912  0.78754008  0.91067500    -0.03700
C925        C  0.64347462  0.76596420  0.89142235     0.04900
C926        C  0.66075335  0.78745048  0.87062585     0.03000
H927        H  0.60810025  0.78015087  0.92972615     0.08100
H928        H  0.67786211  0.78002089  0.85184116     0.06900
N929        N  0.59904596  0.58111976  0.93774554    -0.27500
N930        N  0.60716246  0.55213614  0.92260415    -0.35300
C931        C  0.58905037  0.52676160  0.93429549     0.00900
C932        C  0.56887892  0.54042429  0.95815989     0.06900
C933        C  0.57595485  0.57484623  0.95983472    -0.06200
H934        H  0.59038376  0.50038775  0.92590980     0.07600
H935        H  0.56446341  0.59415926  0.97505243     0.08800
Cu936      Cu  0.64187704  0.54854502  0.88592641     0.44200
Cu937      Cu  0.61712559  0.62881163  0.92550422     0.42000
Cu938      Cu  0.67202337  0.63019552  0.85634965     0.43900
N939        N  0.67537952  0.55339820  0.84791094    -0.34900
N940        N  0.68592563  0.58318319  0.83679183    -0.29100
C941        C  0.70651866  0.57770853  0.81148486    -0.05200
C942        C  0.70922971  0.54269826  0.80637562     0.07000
C943        C  0.68916168  0.52818811  0.83007367     0.00800
H944        H  0.71851091  0.59793197  0.79798958     0.08500
H945        H  0.68468937  0.50118362  0.83374883     0.07500
N946        N  0.65506837  0.67427415  0.87946580    -0.36300
N947        N  0.63490695  0.67386547  0.90500384    -0.28500
C948        C  0.62780187  0.70633568  0.91346974    -0.03700
C949        C  0.64436427  0.72820103  0.89224702     0.04900
C950        C  0.66143115  0.70696669  0.87108081     0.03000
H951        H  0.61150646  0.71344490  0.93326691     0.08100
H952        H  0.67699870  0.71466806  0.85065648     0.06900
C953        C  0.72911253  0.52352179  0.78081459     0.86300
C954        C  0.75242332  0.50009670  0.79909222    -0.53900
C955        C  0.76992695  0.48151617  0.77672104     0.09200
C956        C  0.76257993  0.48798453  0.73775451     0.20200
C957        C  0.74827298  0.54562261  0.75593541    -0.54700
C958        C  0.76600441  0.52723304  0.73335134     0.09300
C959        C  0.71065515  0.50017772  0.75653651    -0.54200
C960        C  0.72794126  0.48142801  0.73403081     0.09900
H961        H  0.75535434  0.49891172  0.82738303     0.14400
H962        H  0.77674737  0.47273975  0.71959009     0.00200
H963        H  0.74823861  0.57330831  0.75647734     0.14700
H964        H  0.68589410  0.49874974  0.75703834     0.14500
C965        C  0.72851745  0.97219546  0.78223002     0.86300
C966        C  0.70947393  0.99385979  0.75669585    -0.53900
C967        C  0.72631731  0.01292983  0.73398509     0.09200
C968        C  0.76113574  0.00837876  0.73872117     0.20200
C969        C  0.74911427  0.95057161  0.75872073    -0.54700
C970        C  0.76633250  0.96931288  0.73583624     0.09300
C971        C  0.75037037  0.99726606  0.80023166    -0.54200
C972        C  0.76751599  0.01611475  0.77757750     0.09900
H973        H  0.68467294  0.99403839  0.75659268     0.14400
H974        H  0.77493653  0.02392047  0.72034294     0.00200
H975        H  0.75024162  0.92292394  0.76024532     0.14700
H976        H  0.75297713  0.99896566  0.82851178     0.14500
loop_ 
_geom_bond_atom_site_label_1 
_geom_bond_atom_site_label_2 
_geom_bond_distance 
_geom_bond_site_symmetry_2 
_ccdc_geom_bond_type 
O1           C11   1.277       .  A
O1         Cu497   2.010   1_554  S
O2           C12   1.279   1_545  A
O2           Cu9   2.017       .  S
O3           C13   1.278   1_545  A
O3           Cu9   2.016       .  S
O4           C14   1.278       .  A
O4         Cu497   2.014   1_554  S
O5           C14   1.280       .  A
O5          Cu10   2.023   1_545  S
O6           C13   1.277       .  A
O6         Cu498   2.009       .  S
O7           C12   1.276       .  A
O7         Cu498   1.999       .  S
O8           C11   1.277       .  A
O8          Cu10   2.008   1_545  S
Cu9         O489   2.010       .  S
Cu9         O492   2.014       .  S
Cu9        Cu498   2.376   1_545  S
Cu10        O494   2.009   1_554  S
Cu10        O495   1.999   1_554  S
Cu10       Cu497   2.376   1_564  S
C11         C188   1.468       .  S
C12         C420   1.467       .  S
C13          C80   1.470       .  S
C14         C372   1.475       .  S
O15          C25   1.279       .  A
O15         Cu23   2.017       .  S
O16          C26   1.277       .  A
O16        Cu511   2.006       .  S
O17          C27   1.277       .  A
O17        Cu511   2.008       .  S
O18          C28   1.278       .  A
O18         Cu23   2.014       .  S
O19          C28   1.277       .  A
O19        Cu512   2.012   1_554  S
O20          C27   1.279       .  A
O20         Cu24   2.020       .  S
O21          C26   1.278       .  A
O21         Cu24   2.019       .  S
O22          C25   1.278       .  A
O22        Cu512   2.013   1_554  S
Cu23        O504   2.006       .  S
Cu23        O505   2.008       .  S
Cu23       Cu512   2.375   1_554  S
Cu24        O507   2.012       .  S
Cu24        O510   2.013       .  S
Cu24       Cu511   2.375       .  S
C25         C212   1.472       .  S
C26         C444   1.470       .  S
C27         C104   1.471       .  S
C28         C396   1.471       .  S
N29          N30   1.323       .  A
N29          C33   1.346       .  A
N29         Cu37   2.087       .  S
N30          C31   1.346       .  A
N30         Cu36   2.069       .  S
C31          C32   1.382       .  A
C31          H34   1.081       .  S
C32         C272   1.471       .  S
C32          C33   1.384       .  A
C33          H35   1.082       .  S
Cu36         N39   2.068       .  S
Cu37         N47   2.086       .  S
Cu38         N40   2.066       .  S
Cu38         N46   2.066       .  S
N39          N40   1.321       .  A
N39          C43   1.344       .  A
N40          C41   1.341       .  A
C41          C42   1.387       .  A
C41          H44   1.079       .  S
C42          C43   1.384       .  A
C42         C233   1.507       .  S
C43          H45   1.082       .  S
N46          N47   1.322       .  A
N46          C50   1.346       .  A
N47          C48   1.346       .  A
C48          C49   1.386       .  A
C48          H51   1.083       .  S
C49          C73   1.475       .  S
C49          C50   1.383       .  A
C50          H52   1.081       .  S
N53          N54   1.321       .  A
N53          C57   1.345       .  A
N53         Cu61   2.070       .  S
N54          C55   1.348       .  A
N54         Cu60   2.085       .  S
C55          C56   1.386       .  A
C55          H58   1.083       .  S
C56         C256   1.473       .  S
C56          C57   1.383       .  A
C57          H59   1.080       .  S
Cu60         N63   2.086       .  S
Cu61         N71   2.070       .  S
Cu62         N64   2.092       .  S
Cu62         N70   2.092       .  S
N63          N64   1.324       .  A
N63          C67   1.345       .  A
N64          C65   1.351       .  A
C65          C66   1.385       .  A
C65          H68   1.083       .  S
C66          C67   1.383       .  A
C66         C180   1.478       .  S
C67          H69   1.082       .  S
N70          N71   1.323       .  A
N70          C74   1.348       .  A
N71          C72   1.344       .  A
C72          C73   1.381       .  A
C72          H75   1.082       .  S
C73          C74   1.387       .  A
C74          H76   1.082       .  S
N77          N78   1.321       .  A
N77          C81   1.345       .  A
N77         Cu85   2.071       .  S
N78          C79   1.346       .  A
N78         Cu84   2.075       .  S
C79          C80   1.384       .  A
C79          H82   1.083       .  S
C80          C81   1.383       .  A
C81          H83   1.080       .  S
Cu84         N87   2.076       .  S
Cu85         N95   2.071       .  S
Cu86         N88   2.094       .  S
Cu86         N94   2.095       .  S
N87          N88   1.323       .  A
N87          C91   1.343       .  A
N88          C89   1.351       .  A
C89          C90   1.386       .  A
C89          H92   1.083       .  S
C90          C91   1.382       .  A
C90         C235   1.476       .  S
C91          H93   1.082       .  S
N94          N95   1.324       .  A
N94          C98   1.348       .  A
N95          C96   1.345       .  A
C96          C97   1.381       .  A
C96          H99   1.081       .  S
C97         C121   1.476       .  S
C97          C98   1.387       .  A
C98         H100   1.082       .  S
N101        N102   1.324       .  A
N101        C105   1.348       .  A
N101       Cu109   2.091       .  S
N102        C103   1.345       .  A
N102       Cu108   2.072       .  S
C103        C104   1.380       .  A
C103        H106   1.082       .  S
C104        C105   1.386       .  A
C105        H107   1.081       .  S
Cu108       N111   2.071       .  S
Cu109       N119   2.090       .  S
Cu110       N112   2.073       .  S
Cu110       N118   2.073       .  S
N111        N112   1.320       .  A
N111        C115   1.346       .  A
N112        C113   1.343       .  A
C113        C114   1.389       .  A
C113        H116   1.080       .  S
C114        C115   1.386       .  A
C114        C173   1.513       .  S
C115        H117   1.082       .  S
N118        N119   1.323       .  A
N118        C122   1.346       .  A
N119        C120   1.347       .  A
C120        C121   1.387       .  A
C120        H123   1.081       .  S
C121        C122   1.382       .  A
C122        H124   1.082       .  S
N125        N126   1.321       .  A
N125        C129   1.344       .  A
N125       Cu133   2.074       .  S
N126        C127   1.348       .  A
N126       Cu132   2.076       .  S
C127        C128   1.385       .  A
C127        H130   1.082       .  S
C128        C270   1.472       .  S
C128        C129   1.384       .  A
C129        H131   1.081       .  S
Cu132       N135   2.077       .  S
Cu133       N143   2.075       .  S
Cu134       N136   2.089       .  S
Cu134       N142   2.090       .  S
N135        N136   1.324       .  A
N135        C139   1.341       .  A
N136        C137   1.352       .  A
C137        C138   1.385       .  A
C137        H140   1.082       .  S
C138        C139   1.381       .  A
C138        C240   1.476       .  S
C139        H141   1.082       .  S
N142        N143   1.323       .  A
N142        C146   1.349       .  A
N143        C144   1.344       .  A
C144        C145   1.382       .  A
C144        H147   1.082       .  S
C145        C169   1.476       .  S
C145        C146   1.387       .  A
C146        H148   1.082       .  S
N149        N150   1.324       .  A
N149        C153   1.345       .  A
N149       Cu157   2.078       .  S
N150        C151   1.346       .  A
N150       Cu156   2.079       .  S
C151        C152   1.383       .  A
C151        H154   1.083       .  S
C152        C258   1.469       .  S
C152        C153   1.383       .  A
C153        H155   1.080       .  S
Cu156       N159   2.079       .  S
Cu157       N167   2.077       .  S
Cu158       N160   2.079       .  S
Cu158       N166   2.078       .  S
N159        N160   1.322       .  A
N159        C163   1.350       .  A
N160        C161   1.340       .  A
C161        C162   1.387       .  A
C161        H164   1.081       .  S
C162        C163   1.386       .  A
C162        C178   1.485       .  S
C163        H165   1.081       .  S
N166        N167   1.321       .  A
N166        C170   1.348       .  A
N167        C168   1.345       .  A
C168        C169   1.385       .  A
C168        H171   1.082       .  S
C169        C170   1.385       .  A
C170        H172   1.081       .  S
C173        C174   1.530       .  S
C173        C179   1.531       .  S
C173        C177   1.532       .  S
C174        H181   1.085       .  S
C174        C175   1.366       .  D
C175        C222   1.482       .  S
C175        C176   1.547       .  S
C176        C180   1.545       .  S
C176        C178   1.550       .  S
C176        H182   1.110       .  S
C177        H183   1.081       .  S
C177        C178   1.367       .  D
C179        H184   1.088       .  S
C179        C180   1.366       .  D
N185        N186   1.323       .  A
N185        C189   1.346       .  A
N185       Cu193   2.078       .  S
N186        C187   1.344       .  A
N186       Cu192   2.071       .  S
C187        C188   1.381       .  A
C187        H190   1.082       .  S
C188        C189   1.383       .  A
C189        H191   1.081       .  S
Cu192       N195   2.070       .  S
Cu193       N203   2.077       .  S
Cu194       N196   2.077       .  S
Cu194       N202   2.076       .  S
N195        N196   1.322       .  A
N195        C199   1.350       .  A
N196        C197   1.339       .  A
C197        C198   1.386       .  A
C197        H200   1.081       .  S
C198        C199   1.384       .  A
C198        C238   1.481       .  S
C199        H201   1.082       .  S
N202        N203   1.321       .  A
N202        C206   1.348       .  A
N203        C204   1.344       .  A
C204        C205   1.385       .  A
C204        H207   1.083       .  S
C205        C229   1.477       .  S
C205        C206   1.385       .  A
C206        H208   1.082       .  S
N209        N210   1.320       .  A
N209        C213   1.347       .  A
N209       Cu217   2.073       .  S
N210        C211   1.346       .  A
N210       Cu216   2.075       .  S
C211        C212   1.384       .  A
C211        H214   1.083       .  S
C212        C213   1.385       .  A
C213        H215   1.081       .  S
Cu216       N219   2.076       .  S
Cu217       N227   2.073       .  S
Cu218       N220   2.099       .  S
Cu218       N226   2.099       .  S
N219        N220   1.324       .  A
N219        C223   1.341       .  A
N220        C221   1.354       .  A
C221        C222   1.388       .  A
C221        H224   1.082       .  S
C222        C223   1.381       .  A
C223        H225   1.083       .  S
N226        N227   1.325       .  A
N226        C230   1.350       .  A
N227        C228   1.343       .  A
C228        C229   1.380       .  A
C228        H231   1.083       .  S
C229        C230   1.388       .  A
C230        H232   1.082       .  S
C233        C234   1.528   1_545  S
C233        C239   1.528   1_545  S
C233        C237   1.531       .  S
C234        H241   1.088       .  S
C234        C235   1.366       .  D
C235        C236   1.547       .  S
C236        C240   1.545       .  S
C236        C238   1.548   1_565  S
C236        H242   1.110       .  S
C237        H243   1.081       .  S
C237        C238   1.365       .  D
C239        H244   1.086       .  S
C239        C240   1.364       .  D
O245        C255   1.277       .  A
O245       Cu741   2.009   1_554  S
O246        C256   1.278       .  A
O246       Cu253   2.017   1_455  S
O247        C257   1.278       .  A
O247       Cu253   2.012       .  S
O248        C258   1.277       .  A
O248       Cu741   2.005   1_454  S
O249        C258   1.278       .  A
O249       Cu254   2.018   1_455  S
O250        C257   1.277       .  A
O250       Cu742   2.009       .  S
O251        C256   1.278       .  A
O251       Cu742   2.015   1_455  S
O252        C255   1.280       .  A
O252       Cu254   2.029       .  S
Cu253       O733   2.009       .  S
Cu253       O736   2.005   1_655  S
Cu253      Cu742   2.375       .  S
Cu254       O738   2.009   1_554  S
Cu254       O739   2.015   1_654  S
Cu254      Cu741   2.375   1_554  S
C255        C348   1.475       .  S
C257        C300   1.469       .  S
O259        C269   1.277       .  A
O259       Cu267   2.008   1_545  S
O260        C270   1.276       .  A
O260       Cu755   2.000   1_454  S
O261        C271   1.278       .  A
O261       Cu755   2.013   1_554  S
O262        C272   1.280       .  A
O262       Cu267   2.023   1_445  S
O263        C272   1.276       .  A
O263       Cu756   2.005   1_455  S
O264        C271   1.278       .  A
O264       Cu268   2.015   1_565  S
O265        C270   1.280       .  A
O265       Cu268   2.028   1_465  S
O266        C269   1.278       .  A
O266       Cu756   2.014       .  S
Cu267       O748   2.000   1_655  S
Cu267       O749   2.013       .  S
Cu267      Cu756   2.375   1_565  S
Cu268       O751   2.005   1_654  S
Cu268       O754   2.014   1_554  S
Cu268      Cu755   2.375   1_544  S
C269        C276   1.469       .  S
C271        C324   1.472       .  S
N273        N274   1.321       .  A
N273        C277   1.345       .  A
N273       Cu281   2.071       .  S
N274        C275   1.346       .  A
N274       Cu280   2.073       .  S
C275        C276   1.384       .  A
C275        H278   1.081       .  S
C276        C277   1.382       .  A
C277        H279   1.082       .  S
Cu280       N283   2.074       .  S
Cu281       N291   2.072       .  S
Cu282       N284   2.084       .  S
Cu282       N290   2.085       .  S
N283        N284   1.324       .  A
N283        C287   1.342       .  A
N284        C285   1.349       .  A
C285        C286   1.383       .  A
C285        H288   1.082       .  S
C286        C287   1.379       .  A
C286        C484   1.470       .  S
C287        H289   1.082   1_545  S
N290        N291   1.323       .  A
N290        C294   1.348       .  A
N291        C292   1.343       .  A
C292        C293   1.382       .  A
C292        H295   1.084       .  S
C293        C317   1.474       .  S
C293        C294   1.386       .  A
C294        H296   1.082       .  S
N297        N298   1.321       .  A
N297        C301   1.347       .  A
N297       Cu305   2.078       .  S
N298        C299   1.344       .  A
N298       Cu304   2.068       .  S
C299        C300   1.382       .  A
C299        H302   1.083       .  S
C300        C301   1.385       .  A
C301        H303   1.081       .  S
Cu304       N307   2.069       .  S
Cu305       N315   2.080       .  S
Cu306       N308   2.085       .  S
Cu306       N314   2.086       .  S
N307        N308   1.323       .  A
N307        C311   1.342       .  A
N308        C309   1.350       .  A
C309        C310   1.384       .  A
C309        H312   1.083       .  S
C310        C311   1.379       .  A
C310        C467   1.471       .  S
C311        H313   1.082       .  S
N314        N315   1.324       .  A
N314        C318   1.348       .  A
N315        C316   1.344       .  A
C316        C317   1.383       .  A
C316        H319   1.083       .  S
C317        C318   1.384       .  A
C318        H320   1.083       .  S
N321        N322   1.324       .  A
N321        C325   1.344       .  A
N321       Cu329   2.075       .  S
N322        C323   1.348       .  A
N322       Cu328   2.089       .  S
C323        C324   1.386       .  A
C323        H326   1.082       .  S
C324        C325   1.381       .  A
C325        H327   1.081       .  S
Cu328       N331   2.088       .  S
Cu329       N339   2.075       .  S
Cu330       N332   2.074       .  S
Cu330       N338   2.073       .  S
N331        N332   1.323       .  A
N331        C335   1.350       .  A
N332        C333   1.341       .  A
C333        C334   1.385       .  A
C333        H336   1.082       .  S
C334        C335   1.388       .  A
C334        C482   1.485       .  S
C335        H337   1.081       .  S
N338        N339   1.321       .  A
N338        C342   1.346       .  A
N339        C340   1.346       .  A
C340        C341   1.385       .  A
C340        H343   1.082       .  S
C341        C365   1.476       .  S
C341        C342   1.385       .  A
C342        H344   1.081       .  S
N345        N346   1.325       .  A
N345        C349   1.345       .  A
N345       Cu353   2.082       .  S
N346        C347   1.350       .  A
N346       Cu352   2.094       .  S
C347        C348   1.386       .  A
C347        H350   1.083       .  S
C348        C349   1.383       .  A
C349        H351   1.080       .  S
Cu352       N355   2.094       .  S
Cu353       N363   2.080       .  S
Cu354       N356   2.076       .  S
Cu354       N362   2.075       .  S
N355        N356   1.323       .  A
N355        C359   1.351       .  A
N356        C357   1.342       .  A
C357        C358   1.386       .  A
C357        H360   1.081       .  S
C358        C359   1.389       .  A
C358        C470   1.488       .  S
C359        H361   1.082       .  S
N362        N363   1.321       .  A
N362        C366   1.346       .  A
N363        C364   1.347       .  A
C364        C365   1.386       .  A
C364        H367   1.082       .  S
C365        C366   1.384       .  A
C366        H368   1.081       .  S
N369        N370   1.321       .  A
N369        C373   1.348       .  A
N369       Cu377   2.086       .  S
N370        C371   1.346       .  A
N370       Cu376   2.073       .  S
C371        C372   1.384       .  A
C371        H374   1.082       .  S
C372        C373   1.387       .  A
C373        H375   1.081       .  S
Cu376       N379   2.074       .  S
Cu377       N387   2.087       .  S
Cu378       N380   2.088       .  S
Cu378       N386   2.088       .  S
N379        N380   1.324       .  A
N379        C383   1.341       .  A
N380        C381   1.351       .  A
C381        C382   1.385       .  A
C381        H384   1.082       .  S
C382        C383   1.381       .  A
C382        C479   1.476       .  S
C383        H385   1.082       .  S
N386        N387   1.324       .  A
N386        C390   1.351       .  A
N387        C388   1.343       .  A
C388        C389   1.384       .  A
C388        H391   1.083       .  S
C389        C413   1.479       .  S
C389        C390   1.387       .  A
C390        H392   1.081       .  S
N393        N394   1.320       .  A
N393        C397   1.347       .  A
N393       Cu401   2.074       .  S
N394        C395   1.344       .  A
N394       Cu400   2.066       .  S
C395        C396   1.383       .  A
C395        H398   1.082       .  S
C396        C397   1.386       .  A
C397        H399   1.082       .  S
Cu400       N403   2.067       .  S
Cu401       N411   2.075       .  S
Cu402       N404   2.102       .  S
Cu402       N410   2.104       .  S
N403        N404   1.324       .  A
N403        C407   1.340       .  A
N404        C405   1.353       .  A
C405        C406   1.389       .  A
C405        H408   1.082       .  S
C406        C407   1.379       .  A
C406        C472   1.479       .  S
C407        H409   1.082       .  S
N410        N411   1.325       .  A
N410        C414   1.352       .  A
N411        C412   1.342       .  A
C412        C413   1.380       .  A
C412        H415   1.083       .  S
C413        C414   1.390       .  A
C414        H416   1.081       .  S
N417        N418   1.323       .  A
N417        C421   1.345       .  A
N417       Cu425   2.082       .  S
N418        C419   1.345       .  A
N418       Cu424   2.068       .  S
C419        C420   1.381       .  A
C419        H422   1.082       .  S
C420        C421   1.383       .  A
C421        H423   1.081       .  S
Cu424       N427   2.068       .  S
Cu425       N435   2.082       .  S
Cu426       N428   2.075       .  S
Cu426       N434   2.075       .  S
N427        N428   1.321       .  A
N427        C431   1.343       .  A
N428        C429   1.345       .  A
C429        C430   1.387       .  A
C429        H432   1.081       .  S
C430        C431   1.384       .  A
C430        C477   1.509       .  S
C431        H433   1.082       .  S
N434        N435   1.322       .  A
N434        C438   1.345       .  A
N435        C436   1.348       .  A
C436        C437   1.386       .  A
C436        H439   1.081       .  S
C437        C461   1.476       .  S
C437        C438   1.384       .  A
C438        H440   1.082       .  S
N441        N442   1.324       .  A
N441        C445   1.345       .  A
N441       Cu449   2.078       .  S
N442        C443   1.347       .  A
N442       Cu448   2.082       .  S
C443        C444   1.384       .  A
C443        H446   1.082       .  S
C444        C445   1.382       .  A
C445        H447   1.081       .  S
Cu448       N451   2.082       .  S
Cu449       N459   2.078       .  S
Cu450       N452   2.079       .  S
Cu450       N458   2.078       .  S
N451        N452   1.322       .  A
N451        C455   1.346       .  A
N452        C453   1.346       .  A
C453        C454   1.388       .  A
C453        H456   1.080       .  S
C454        C455   1.387       .  A
C454        C465   1.515       .  S
C455        H457   1.082       .  S
N458        N459   1.322       .  A
N458        C462   1.345       .  A
N459        C460   1.347       .  A
C460        C461   1.385       .  A
C460        H463   1.082       .  S
C461        C462   1.384       .  A
C462        H464   1.082       .  S
C465        C466   1.531       .  S
C465        C471   1.530       .  S
C465        C469   1.537       .  S
C466        H473   1.088       .  S
C466        C467   1.364       .  D
C467        C468   1.539       .  S
C468        C472   1.543       .  S
C468        C470   1.549       .  S
C468        H474   1.110       .  S
C469        H475   1.082       .  S
C469        C470   1.371       .  D
C471        H476   1.086       .  S
C471        C472   1.366       .  D
C477        C478   1.529       .  S
C477        C483   1.531       .  S
C477        C481   1.534       .  S
C478        H485   1.085       .  S
C478        C479   1.363   1_565  D
C479        C480   1.543       .  S
C480        C484   1.539       .  S
C480        C482   1.547   1_545  S
C480        H486   1.110       .  S
C481        H487   1.082       .  S
C481        C482   1.370       .  D
C483        H488   1.087       .  S
C483        C484   1.365   1_565  D
O489        C499   1.277       .  A
O490        C500   1.279   1_545  A
O490       Cu497   2.017       .  S
O491        C501   1.278   1_545  A
O491       Cu497   2.016       .  S
O492        C502   1.278       .  A
O493        C502   1.280       .  A
O493       Cu498   2.023   1_545  S
O494        C501   1.277       .  A
O495        C500   1.276       .  A
O496        C499   1.277       .  A
O496       Cu498   2.008   1_545  S
C499        C676   1.468       .  S
C500        C908   1.467       .  S
C501        C568   1.470       .  S
C502        C860   1.475       .  S
O503        C513   1.279       .  A
O503       Cu511   2.017       .  S
O504        C514   1.277   1_554  A
O505        C515   1.277   1_554  A
O506        C516   1.278       .  A
O506       Cu511   2.014       .  S
O507        C516   1.277       .  A
O508        C515   1.279       .  A
O508       Cu512   2.020       .  S
O509        C514   1.278       .  A
O509       Cu512   2.019       .  S
O510        C513   1.278       .  A
C513        C700   1.472       .  S
C514        C932   1.470       .  S
C515        C592   1.471       .  S
C516        C884   1.471       .  S
N517        N518   1.323       .  A
N517        C521   1.346       .  A
N517       Cu525   2.087       .  S
N518        C519   1.346       .  A
N518       Cu524   2.069       .  S
C519        C520   1.382       .  A
C519        H522   1.082       .  S
C520        C760   1.471       .  S
C520        C521   1.384       .  A
C521        H523   1.082       .  S
Cu524       N527   2.068       .  S
Cu525       N535   2.086       .  S
Cu526       N528   2.066       .  S
Cu526       N534   2.066       .  S
N527        N528   1.321       .  A
N527        C531   1.344       .  A
N528        C529   1.341       .  A
C529        C530   1.387       .  A
C529        H532   1.079       .  S
C530        C531   1.384       .  A
C530        C721   1.507       .  S
C531        H533   1.082       .  S
N534        N535   1.322       .  A
N534        C538   1.346       .  A
N535        C536   1.346       .  A
C536        C537   1.386       .  A
C536        H539   1.083       .  S
C537        C561   1.475       .  S
C537        C538   1.383       .  A
C538        H540   1.081       .  S
N541        N542   1.321       .  A
N541        C545   1.345       .  A
N541       Cu549   2.070       .  S
N542        C543   1.348       .  A
N542       Cu548   2.085       .  S
C543        C544   1.386       .  A
C543        H546   1.084       .  S
C544        C744   1.473       .  S
C544        C545   1.383       .  A
C545        H547   1.080       .  S
Cu548       N551   2.086       .  S
Cu549       N559   2.070       .  S
Cu550       N552   2.092       .  S
Cu550       N558   2.092       .  S
N551        N552   1.324       .  A
N551        C555   1.345       .  A
N552        C553   1.351       .  A
C553        C554   1.385       .  A
C553        H556   1.083       .  S
C554        C555   1.383       .  A
C554        C668   1.478       .  S
C555        H557   1.082       .  S
N558        N559   1.323       .  A
N558        C562   1.349       .  A
N559        C560   1.344       .  A
C560        C561   1.381       .  A
C560        H563   1.082       .  S
C561        C562   1.387       .  A
C562        H564   1.082       .  S
N565        N566   1.321       .  A
N565        C569   1.345       .  A
N565       Cu573   2.071       .  S
N566        C567   1.346       .  A
N566       Cu572   2.075       .  S
C567        C568   1.384       .  A
C567        H570   1.083       .  S
C568        C569   1.383       .  A
C569        H571   1.080       .  S
Cu572       N575   2.076       .  S
Cu573       N583   2.071       .  S
Cu574       N576   2.094       .  S
Cu574       N582   2.095       .  S
N575        N576   1.323       .  A
N575        C579   1.343       .  A
N576        C577   1.351       .  A
C577        C578   1.386       .  A
C577        H580   1.083       .  S
C578        C579   1.382       .  A
C578        C723   1.476       .  S
C579        H581   1.082       .  S
N582        N583   1.324       .  A
N582        C586   1.348       .  A
N583        C584   1.345       .  A
C584        C585   1.381       .  A
C584        H587   1.082       .  S
C585        C609   1.476       .  S
C585        C586   1.387       .  A
C586        H588   1.082       .  S
N589        N590   1.324       .  A
N589        C593   1.348       .  A
N589       Cu597   2.091       .  S
N590        C591   1.345       .  A
N590       Cu596   2.072       .  S
C591        C592   1.380       .  A
C591        H594   1.082       .  S
C592        C593   1.386       .  A
C593        H595   1.081       .  S
Cu596       N599   2.071       .  S
Cu597       N607   2.090       .  S
Cu598       N600   2.073       .  S
Cu598       N606   2.073       .  S
N599        N600   1.320       .  A
N599        C603   1.346       .  A
N600        C601   1.343       .  A
C601        C602   1.389       .  A
C601        H604   1.080       .  S
C602        C603   1.386       .  A
C602        C661   1.513       .  S
C603        H605   1.083       .  S
N606        N607   1.323       .  A
N606        C610   1.346       .  A
N607        C608   1.347       .  A
C608        C609   1.387       .  A
C608        H611   1.081       .  S
C609        C610   1.382       .  A
C610        H612   1.082       .  S
N613        N614   1.321       .  A
N613        C617   1.344       .  A
N613       Cu621   2.074       .  S
N614        C615   1.348       .  A
N614       Cu620   2.076       .  S
C615        C616   1.385       .  A
C615        H618   1.082       .  S
C616        C758   1.472       .  S
C616        C617   1.384       .  A
C617        H619   1.081       .  S
Cu620       N623   2.077       .  S
Cu621       N631   2.075       .  S
Cu622       N624   2.089       .  S
Cu622       N630   2.090       .  S
N623        N624   1.324       .  A
N623        C627   1.341       .  A
N624        C625   1.352       .  A
C625        C626   1.385       .  A
C625        H628   1.082       .  S
C626        C627   1.381       .  A
C626        C728   1.476       .  S
C627        H629   1.083       .  S
N630        N631   1.323       .  A
N630        C634   1.349       .  A
N631        C632   1.344       .  A
C632        C633   1.382       .  A
C632        H635   1.082       .  S
C633        C657   1.476       .  S
C633        C634   1.387       .  A
C634        H636   1.081       .  S
N637        N638   1.324       .  A
N637        C641   1.345       .  A
N637       Cu645   2.078       .  S
N638        C639   1.346       .  A
N638       Cu644   2.079       .  S
C639        C640   1.383       .  A
C639        H642   1.083       .  S
C640        C746   1.469       .  S
C640        C641   1.382       .  A
C641        H643   1.081       .  S
Cu644       N647   2.079       .  S
Cu645       N655   2.077       .  S
Cu646       N648   2.079       .  S
Cu646       N654   2.078       .  S
N647        N648   1.322       .  A
N647        C651   1.350       .  A
N648        C649   1.340       .  A
C649        C650   1.387       .  A
C649        H652   1.082       .  S
C650        C651   1.386       .  A
C650        C666   1.485       .  S
C651        H653   1.081       .  S
N654        N655   1.321       .  A
N654        C658   1.348       .  A
N655        C656   1.345       .  A
C656        C657   1.385       .  A
C656        H659   1.082       .  S
C657        C658   1.385       .  A
C658        H660   1.082       .  S
C661        C662   1.530       .  S
C661        C667   1.531       .  S
C661        C665   1.532       .  S
C662        H669   1.085       .  S
C662        C663   1.366       .  D
C663        C710   1.482       .  S
C663        C664   1.547       .  S
C664        C668   1.545       .  S
C664        C666   1.550       .  S
C664        H670   1.110       .  S
C665        H671   1.081       .  S
C665        C666   1.367       .  D
C667        H672   1.088       .  S
C667        C668   1.366       .  D
N673        N674   1.323       .  A
N673        C677   1.346       .  A
N673       Cu681   2.078       .  S
N674        C675   1.344       .  A
N674       Cu680   2.071       .  S
C675        C676   1.381       .  A
C675        H678   1.083       .  S
C676        C677   1.383       .  A
C677        H679   1.081       .  S
Cu680       N683   2.070       .  S
Cu681       N691   2.077       .  S
Cu682       N684   2.077       .  S
Cu682       N690   2.076       .  S
N683        N684   1.322       .  A
N683        C687   1.350       .  A
N684        C685   1.339       .  A
C685        C686   1.386       .  A
C685        H688   1.081       .  S
C686        C687   1.384       .  A
C686        C726   1.481       .  S
C687        H689   1.081       .  S
N690        N691   1.321       .  A
N690        C694   1.348       .  A
N691        C692   1.344       .  A
C692        C693   1.385       .  A
C692        H695   1.084       .  S
C693        C717   1.477       .  S
C693        C694   1.385       .  A
C694        H696   1.082       .  S
N697        N698   1.320       .  A
N697        C701   1.347       .  A
N697       Cu705   2.073       .  S
N698        C699   1.346       .  A
N698       Cu704   2.075       .  S
C699        C700   1.384       .  A
C699        H702   1.083       .  S
C700        C701   1.385       .  A
C701        H703   1.080       .  S
Cu704       N707   2.076       .  S
Cu705       N715   2.073       .  S
Cu706       N708   2.099       .  S
Cu706       N714   2.099       .  S
N707        N708   1.324       .  A
N707        C711   1.341       .  A
N708        C709   1.354       .  A
C709        C710   1.388       .  A
C709        H712   1.082       .  S
C710        C711   1.381       .  A
C711        H713   1.083       .  S
N714        N715   1.325       .  A
N714        C718   1.350       .  A
N715        C716   1.343       .  A
C716        C717   1.380       .  A
C716        H719   1.083       .  S
C717        C718   1.388       .  A
C718        H720   1.082       .  S
C721        C722   1.528   1_545  S
C721        C727   1.528   1_545  S
C721        C725   1.531       .  S
C722        H729   1.088       .  S
C722        C723   1.366       .  D
C723        C724   1.547       .  S
C724        C728   1.545       .  S
C724        C726   1.548   1_565  S
C724        H730   1.110       .  S
C725        H731   1.081       .  S
C725        C726   1.365       .  D
C727        H732   1.086       .  S
C727        C728   1.364       .  D
O733        C743   1.277       .  A
O734        C744   1.278       .  A
O734       Cu741   2.017   1_455  S
O735        C745   1.278       .  A
O735       Cu741   2.012       .  S
O736        C746   1.277       .  A
O737        C746   1.278       .  A
O737       Cu742   2.018   1_455  S
O738        C745   1.277       .  A
O739        C744   1.278       .  A
O740        C743   1.280       .  A
O740       Cu742   2.029       .  S
C743        C836   1.475       .  S
C745        C788   1.469       .  S
O747        C757   1.277       .  A
O747       Cu755   2.008   1_545  S
O748        C758   1.276       .  A
O749        C759   1.278       .  A
O750        C760   1.280       .  A
O750       Cu755   2.023   1_445  S
O751        C760   1.276       .  A
O752        C759   1.278       .  A
O752       Cu756   2.015   1_565  S
O753        C758   1.280       .  A
O753       Cu756   2.028   1_465  S
O754        C757   1.278       .  A
C757        C764   1.469       .  S
C759        C812   1.472       .  S
N761        N762   1.321       .  A
N761        C765   1.345       .  A
N761       Cu769   2.071       .  S
N762        C763   1.346       .  A
N762       Cu768   2.073       .  S
C763        C764   1.384       .  A
C763        H766   1.081       .  S
C764        C765   1.382       .  A
C765        H767   1.082       .  S
Cu768       N771   2.074       .  S
Cu769       N779   2.072       .  S
Cu770       N772   2.084       .  S
Cu770       N778   2.085       .  S
N771        N772   1.324       .  A
N771        C775   1.342       .  A
N772        C773   1.349       .  A
C773        C774   1.383       .  A
C773        H776   1.082       .  S
C774        C775   1.379       .  A
C774        C972   1.470       .  S
C775        H777   1.082   1_545  S
N778        N779   1.323       .  A
N778        C782   1.348       .  A
N779        C780   1.343       .  A
C780        C781   1.382       .  A
C780        H783   1.084       .  S
C781        C805   1.474       .  S
C781        C782   1.386       .  A
C782        H784   1.082       .  S
N785        N786   1.321       .  A
N785        C789   1.347       .  A
N785       Cu793   2.078       .  S
N786        C787   1.344       .  A
N786       Cu792   2.068       .  S
C787        C788   1.382       .  A
C787        H790   1.083       .  S
C788        C789   1.385       .  A
C789        H791   1.081       .  S
Cu792       N795   2.069       .  S
Cu793       N803   2.080       .  S
Cu794       N796   2.085       .  S
Cu794       N802   2.086       .  S
N795        N796   1.323       .  A
N795        C799   1.342       .  A
N796        C797   1.350       .  A
C797        C798   1.384       .  A
C797        H800   1.082       .  S
C798        C799   1.379       .  A
C798        C955   1.471       .  S
C799        H801   1.082       .  S
N802        N803   1.324       .  A
N802        C806   1.348       .  A
N803        C804   1.344       .  A
C804        C805   1.383       .  A
C804        H807   1.083       .  S
C805        C806   1.384       .  A
C806        H808   1.083       .  S
N809        N810   1.324       .  A
N809        C813   1.345       .  A
N809       Cu817   2.075       .  S
N810        C811   1.348       .  A
N810       Cu816   2.089       .  S
C811        C812   1.386       .  A
C811        H814   1.082       .  S
C812        C813   1.381       .  A
C813        H815   1.081       .  S
Cu816       N819   2.088       .  S
Cu817       N827   2.075       .  S
Cu818       N820   2.074       .  S
Cu818       N826   2.073       .  S
N819        N820   1.323       .  A
N819        C823   1.350       .  A
N820        C821   1.341       .  A
C821        C822   1.385       .  A
C821        H824   1.082       .  S
C822        C823   1.388       .  A
C822        C970   1.485       .  S
C823        H825   1.082       .  S
N826        N827   1.321       .  A
N826        C830   1.346       .  A
N827        C828   1.346       .  A
C828        C829   1.385       .  A
C828        H831   1.082       .  S
C829        C853   1.476       .  S
C829        C830   1.385       .  A
C830        H832   1.081       .  S
N833        N834   1.325       .  A
N833        C837   1.345       .  A
N833       Cu841   2.082       .  S
N834        C835   1.350       .  A
N834       Cu840   2.094       .  S
C835        C836   1.386       .  A
C835        H838   1.083       .  S
C836        C837   1.383       .  A
C837        H839   1.080       .  S
Cu840       N843   2.094       .  S
Cu841       N851   2.080       .  S
Cu842       N844   2.076       .  S
Cu842       N850   2.075       .  S
N843        N844   1.323       .  A
N843        C847   1.351       .  A
N844        C845   1.342       .  A
C845        C846   1.386       .  A
C845        H848   1.081       .  S
C846        C847   1.389       .  A
C846        C958   1.488       .  S
C847        H849   1.082       .  S
N850        N851   1.321       .  A
N850        C854   1.346       .  A
N851        C852   1.347       .  A
C852        C853   1.386       .  A
C852        H855   1.081       .  S
C853        C854   1.384       .  A
C854        H856   1.082       .  S
N857        N858   1.321       .  A
N857        C861   1.348       .  A
N857       Cu865   2.086       .  S
N858        C859   1.346       .  A
N858       Cu864   2.073       .  S
C859        C860   1.384       .  A
C859        H862   1.082       .  S
C860        C861   1.387       .  A
C861        H863   1.081       .  S
Cu864       N867   2.074       .  S
Cu865       N875   2.087       .  S
Cu866       N868   2.088       .  S
Cu866       N874   2.088       .  S
N867        N868   1.324       .  A
N867        C871   1.341       .  A
N868        C869   1.350       .  A
C869        C870   1.385       .  A
C869        H872   1.082       .  S
C870        C871   1.381       .  A
C870        C967   1.476       .  S
C871        H873   1.082       .  S
N874        N875   1.324       .  A
N874        C878   1.351       .  A
N875        C876   1.343       .  A
C876        C877   1.384       .  A
C876        H879   1.083       .  S
C877        C901   1.479       .  S
C877        C878   1.387       .  A
C878        H880   1.081       .  S
N881        N882   1.320       .  A
N881        C885   1.347       .  A
N881       Cu889   2.074       .  S
N882        C883   1.344       .  A
N882       Cu888   2.066       .  S
C883        C884   1.383       .  A
C883        H886   1.082       .  S
C884        C885   1.386       .  A
C885        H887   1.082       .  S
Cu888       N891   2.067       .  S
Cu889       N899   2.075       .  S
Cu890       N892   2.102       .  S
Cu890       N898   2.104       .  S
N891        N892   1.324       .  A
N891        C895   1.340       .  A
N892        C893   1.353       .  A
C893        C894   1.389       .  A
C893        H896   1.082       .  S
C894        C895   1.379       .  A
C894        C960   1.479       .  S
C895        H897   1.082       .  S
N898        N899   1.325       .  A
N898        C902   1.352       .  A
N899        C900   1.342       .  A
C900        C901   1.380       .  A
C900        H903   1.083       .  S
C901        C902   1.390       .  A
C902        H904   1.082       .  S
N905        N906   1.323       .  A
N905        C909   1.345       .  A
N905       Cu913   2.082       .  S
N906        C907   1.345       .  A
N906       Cu912   2.068       .  S
C907        C908   1.381       .  A
C907        H910   1.082       .  S
C908        C909   1.383       .  A
C909        H911   1.081       .  S
Cu912       N915   2.068       .  S
Cu913       N923   2.082       .  S
Cu914       N916   2.075       .  S
Cu914       N922   2.075       .  S
N915        N916   1.321       .  A
N915        C919   1.343       .  A
N916        C917   1.345       .  A
C917        C918   1.387       .  A
C917        H920   1.081       .  S
C918        C919   1.384       .  A
C918        C965   1.509       .  S
C919        H921   1.082       .  S
N922        N923   1.322       .  A
N922        C926   1.345       .  A
N923        C924   1.348       .  A
C924        C925   1.386       .  A
C924        H927   1.081       .  S
C925        C949   1.476       .  S
C925        C926   1.384       .  A
C926        H928   1.082       .  S
N929        N930   1.324       .  A
N929        C933   1.345       .  A
N929       Cu937   2.078       .  S
N930        C931   1.347       .  A
N930       Cu936   2.082       .  S
C931        C932   1.384       .  A
C931        H934   1.082       .  S
C932        C933   1.382       .  A
C933        H935   1.081       .  S
Cu936       N939   2.082       .  S
Cu937       N947   2.078       .  S
Cu938       N940   2.079       .  S
Cu938       N946   2.078       .  S
N939        N940   1.322       .  A
N939        C943   1.346       .  A
N940        C941   1.346       .  A
C941        C942   1.388       .  A
C941        H944   1.081       .  S
C942        C943   1.387       .  A
C942        C953   1.515       .  S
C943        H945   1.082       .  S
N946        N947   1.322       .  A
N946        C950   1.345       .  A
N947        C948   1.347       .  A
C948        C949   1.385       .  A
C948        H951   1.082       .  S
C949        C950   1.384       .  A
C950        H952   1.083       .  S
C953        C954   1.531       .  S
C953        C959   1.530       .  S
C953        C957   1.537       .  S
C954        H961   1.088       .  S
C954        C955   1.364       .  D
C955        C956   1.539       .  S
C956        C960   1.543       .  S
C956        C958   1.549       .  S
C956        H962   1.110       .  S
C957        H963   1.082       .  S
C957        C958   1.371       .  D
C959        H964   1.086       .  S
C959        C960   1.366       .  D
C965        C966   1.529       .  S
C965        C971   1.531       .  S
C965        C969   1.534       .  S
C966        H973   1.086       .  S
C966        C967   1.363   1_565  D
C967        C968   1.543       .  S
C968        C972   1.539       .  S
C968        C970   1.547   1_545  S
C968        H974   1.110       .  S
C969        H975   1.082       .  S
C969        C970   1.370       .  D
C971        H976   1.087       .  S
C971        C972   1.365   1_565  D
