geometry optimzed in LAMMPS
_audit_creation_date              2020-12-01 
_audit_creation_method            'lammps2cif' 
_symmetry_space_group_name_H-M    'P1' 
_symmetry_Int_Tables_number       1 
_symmetry_cell_setting            triclinic 
loop_ 
_symmetry_equiv_pos_as_xyz 
  x,y,z 
_cell_length_a                    73.29671746 
_cell_length_b                    30.583248799875772 
_cell_length_c                    41.37488837759049 
_cell_angle_alpha                 90.07792289037913 
_cell_angle_beta                  89.85690169449231 
_cell_angle_gamma                 89.86519404293723 
loop_ 
_atom_site_label 
_atom_site_type_symbol 
_atom_site_fract_x 
_atom_site_fract_y 
_atom_site_fract_z 
_atom_site_charge 
N1          N  0.81124308  0.59710186  0.69733696    -0.26700
N2          N  0.81778804  0.62577365  0.71818789    -0.34500
C3          C  0.80471754  0.63571031  0.73992818     0.01700
C4          C  0.78921786  0.61221984  0.73210147     0.07700
C5          C  0.79384710  0.58832218  0.70493083    -0.05400
H6          H  0.80619315  0.65952351  0.75908858     0.08400
H7          H  0.78515822  0.56637046  0.69148096     0.09600
Cu8        Cu  0.84381627  0.65126726  0.71437413     0.44200
Cu9        Cu  0.82592233  0.57056336  0.65947522     0.42000
Cu10       Cu  0.87118682  0.60917449  0.64628227     0.43900
N11         N  0.87032459  0.67009540  0.70433342    -0.34000
N12         N  0.88014519  0.65501110  0.67983157    -0.28300
C13         C  0.89709592  0.67138893  0.68190275    -0.04400
C14         C  0.89797892  0.69795269  0.70893167     0.07800
C15         C  0.88075912  0.69654893  0.72251344     0.01600
H16         H  0.90816485  0.66299667  0.66567188     0.09300
H17         H  0.87635580  0.71184501  0.74480090     0.08300
N18         N  0.85973941  0.55879516  0.61938482    -0.35500
N19         N  0.84308260  0.54421545  0.62493982    -0.27700
C20         C  0.83959822  0.51059639  0.60499578    -0.02900
C21         C  0.85481785  0.50346147  0.58586172     0.05700
C22         C  0.86727943  0.53497840  0.59539636     0.03800
H23         H  0.82671886  0.49343065  0.60400346     0.08900
H24         H  0.88084206  0.53996572  0.58579990     0.07700
N25         N  0.80933769  0.14633857  0.31693013    -0.26700
N26         N  0.81720886  0.12050627  0.29536806    -0.34500
C27         C  0.80432401  0.09637575  0.28065983     0.01700
C28         C  0.78745137  0.10776503  0.29344265     0.07700
C29         C  0.79128206  0.13937303  0.31648449    -0.05400
H30         H  0.80717457  0.07274065  0.26182948     0.08400
H31         H  0.78157313  0.15749483  0.33096527     0.09600
Cu32       Cu  0.84485654  0.12169982  0.28516084     0.44200
Cu33       Cu  0.82278890  0.19271923  0.34465312     0.42000
Cu34       Cu  0.87066224  0.20313274  0.32973937     0.43900
N35         N  0.87255015  0.13189997  0.27905582    -0.34000
N36         N  0.88198455  0.16093549  0.29578266    -0.28300
C37         C  0.89959687  0.15854569  0.28683302    -0.04400
C38         C  0.90127473  0.12681874  0.26315788     0.07800
C39         C  0.88387310  0.11062947  0.25874238     0.01600
H40         H  0.91036921  0.17854358  0.29681318     0.09300
H41         H  0.87977706  0.08478579  0.24245364     0.08300
N42         N  0.85654365  0.24247312  0.36224133    -0.35500
N43         N  0.83890468  0.23858189  0.36801846    -0.27700
C44         C  0.83400911  0.26758485  0.39098903    -0.02900
C45         C  0.84934076  0.29117709  0.40012468     0.05700
C46         C  0.86334710  0.27407714  0.38127175     0.03800
H47         H  0.82041353  0.26981088  0.40104755     0.08900
H48         H  0.87754717  0.28349682  0.38158749     0.07700
N49         N  0.00775081  0.72686992  0.76702191    -0.26700
N50         N  0.99874489  0.71205428  0.74168429    -0.34500
C51         C  0.01001069  0.68785665  0.72327261     0.01700
C52         C  0.02702006  0.68772420  0.73755037     0.07700
C53         C  0.02516219  0.71290843  0.76521550    -0.05400
H54         H  0.00601614  0.67116201  0.70135343     0.08400
H55         H  0.03550515  0.71942472  0.78320045     0.09600
Cu56       Cu  0.97135437  0.72336116  0.73438051     0.44200
Cu57       Cu  0.99498456  0.76207402  0.80358135     0.42000
Cu58       Cu  0.94545651  0.77927570  0.79659809     0.43900
N59         N  0.94340358  0.73015719  0.73361623    -0.34000
N60         N  0.93370112  0.74956531  0.75649911    -0.28300
C61         C  0.91586677  0.74289461  0.75052846    -0.04400
C62         C  0.91441920  0.71817472  0.72256490     0.07800
C63         C  0.93212073  0.71096368  0.71245847     0.01600
H64         H  0.90486115  0.75334759  0.76623445     0.09300
H65         H  0.93656680  0.69085924  0.69238936     0.08300
N66         N  0.96113417  0.80023916  0.83548064    -0.35500
N67         N  0.97889047  0.79333504  0.83795536    -0.27700
C68         C  0.98473660  0.80964161  0.86621399    -0.02900
C69         C  0.97003930  0.82789043  0.88259008     0.05700
C70         C  0.95528575  0.82142888  0.86212620     0.03800
H71         H  0.99874548  0.80794804  0.87427246     0.08900
H72         H  0.94133816  0.83193780  0.86579963     0.07700
N73         N  0.01249283  0.06153778  0.22451538    -0.26700
N74         N  0.00291999  0.08621399  0.24462906    -0.34500
C75         C  0.01397878  0.10245470  0.26744528     0.01700
C76         C  0.03143205  0.08747981  0.26150519     0.07700
C77         C  0.03005716  0.06157257  0.23409225    -0.05400
H78         H  0.00956975  0.12364798  0.28691254     0.08400
H79         H  0.04098008  0.04412631  0.22198999     0.09600
Cu80       Cu  0.97527183  0.09695507  0.24117100     0.44200
Cu81       Cu  0.00075178  0.02970002  0.18515284     0.42000
Cu82       Cu  0.95082404  0.04370292  0.17853403     0.43900
N83         N  0.94733971  0.10051328  0.23718493    -0.34000
N84         N  0.93800257  0.07981438  0.21463158    -0.28300
C85         C  0.92005970  0.08617497  0.22004312    -0.04400
C86         C  0.91818249  0.11240547  0.24719422     0.07800
C87         C  0.93574007  0.12094625  0.25733273     0.01600
H88         H  0.90923226  0.07250557  0.20547678     0.09300
H89         H  0.93981348  0.13950283  0.27837577     0.08300
N90         N  0.96703715  0.01028333  0.14537413    -0.35500
N91         N  0.98488843  0.00451195  0.14774480    -0.27700
C92         C  0.99079605  0.98220186  0.12161495    -0.02900
C93         C  0.97597956  0.97364599  0.10182834     0.05700
C94         C  0.96120116  0.99212798  0.11769457     0.03800
H95         H  0.00497035  0.97449480  0.11678227     0.08900
H96         H  0.94721942  0.99284564  0.10953975     0.07700
N97         N  0.13322912  0.57927240  0.71019233    -0.26700
N98         N  0.12682720  0.61303006  0.72666381    -0.34500
C99         C  0.14051915  0.63066426  0.74392453     0.01700
C100        C  0.15613371  0.60615416  0.73838651     0.07700
C101        C  0.15102381  0.57399514  0.71679682    -0.05400
H102        H  0.13920246  0.65898476  0.75941257     0.08400
H103        H  0.15970195  0.54944284  0.70583546     0.09600
Cu104      Cu  0.09958499  0.63172049  0.72490938     0.44200
Cu105      Cu  0.11781315  0.54352563  0.67810099     0.42000
Cu106      Cu  0.07025254  0.56771124  0.66974729     0.43900
N107        N  0.07157333  0.64007026  0.72014229    -0.34000
N108        N  0.06116409  0.61748355  0.70005519    -0.28300
C109        C  0.04383060  0.63135060  0.70304728    -0.04400
C110        C  0.04325816  0.66386494  0.72625124     0.07800
C111        C  0.06104995  0.66853545  0.73666080     0.01600
H112        H  0.03244287  0.61819881  0.68960779     0.09300
H113        H  0.06601567  0.69100701  0.75480076     0.08300
N114        N  0.08344991  0.52016470  0.64240441    -0.35500
N115        N  0.10104170  0.51209245  0.64569283    -0.27700
C116        C  0.10597286  0.48027121  0.62516331    -0.02900
C117        C  0.09076446  0.46717145  0.60792853     0.05700
C118        C  0.07665124  0.49326202  0.61960727     0.03800
H119        H  0.11970521  0.46767906  0.62302359     0.08900
H120        H  0.06241814  0.49220856  0.61277767     0.07700
N121        N  0.13785552  0.10064500  0.34451599    -0.26700
N122        N  0.13107907  0.08548819  0.31714524    -0.34500
C123        C  0.14480289  0.06996361  0.29879847     0.01700
C124        C  0.16094402  0.07508991  0.31565496     0.07700
C125        C  0.15599919  0.09462518  0.34450906    -0.05400
H126        H  0.14330858  0.05876022  0.27415961     0.08400
H127        H  0.16511743  0.10788554  0.36259511     0.09600
Cu128      Cu  0.10394363  0.09166198  0.30420730     0.44200
Cu129      Cu  0.12324697  0.13827416  0.37701640     0.42000
Cu130      Cu  0.07625134  0.15894292  0.35743786     0.43900
N131        N  0.07617117  0.10077706  0.29831147    -0.34000
N132        N  0.06605788  0.12492089  0.31796470    -0.28300
C133        C  0.04865655  0.12373972  0.30786976    -0.04400
C134        C  0.04779158  0.09764867  0.28057060     0.07800
C135        C  0.06547553  0.08361242  0.27516679     0.01600
H136        H  0.03747995  0.14075195  0.31955883     0.09300
H137        H  0.07023966  0.06248537  0.25593061     0.08300
N138        N  0.09007299  0.19122196  0.39410552    -0.35500
N139        N  0.10733954  0.18356024  0.40122698    -0.27700
C140        C  0.11247650  0.21030975  0.42532901    -0.02900
C141        C  0.09771715  0.23624837  0.43386982     0.05700
C142        C  0.08371063  0.22294926  0.41365536     0.03800
H143        H  0.12589997  0.21006504  0.43616762     0.08900
H144        H  0.06994896  0.23563644  0.41299356     0.07700
N145        N  0.63768419  0.58417263  0.84843610    -0.26700
N146        N  0.63181249  0.60444547  0.82225036    -0.34500
C147        C  0.64619927  0.62117929  0.80629757     0.01700
C148        C  0.66190289  0.61085855  0.82325040     0.07700
C149        C  0.65591312  0.58744173  0.84983783    -0.05400
H150        H  0.64535279  0.63661064  0.78282203     0.08400
H151        H  0.66426320  0.57164475  0.86791065     0.09600
Cu152      Cu  0.60485499  0.60385439  0.80750610     0.44200
Cu153      Cu  0.62144439  0.54704787  0.87877980     0.42000
Cu154      Cu  0.57505564  0.53356696  0.85514040     0.43900
N155        N  0.57704908  0.59821127  0.80011837    -0.34000
N156        N  0.56634240  0.57249035  0.81742302    -0.28300
C157        C  0.54899746  0.57822198  0.80800859    -0.04400
C158        C  0.54876118  0.60909095  0.78369734     0.07800
C159        C  0.56676003  0.62104042  0.77917769     0.01600
H160        H  0.53737888  0.56211073  0.81887701     0.09300
H161        H  0.57194872  0.64546942  0.76269596     0.08300
N162        N  0.58633552  0.50133141  0.89413024    -0.35500
N163        N  0.60342526  0.50681921  0.90322078    -0.27700
C164        C  0.60689948  0.48050187  0.92846823    -0.02900
C165        C  0.59117304  0.45737385  0.93573483     0.05700
C166        C  0.57843849  0.47136474  0.91329702     0.03800
H167        H  0.62017866  0.47685932  0.93946482     0.08900
H168        H  0.56459035  0.45994396  0.91060570     0.07700
N169        N  0.63193114  0.09906235  0.19797261    -0.26700
N170        N  0.62689108  0.09015439  0.22796735    -0.34500
C171        C  0.64156047  0.07676917  0.24479793     0.01700
C172        C  0.65664460  0.07735129  0.22456414     0.07700
C173        C  0.64993035  0.09152555  0.19503895    -0.05400
H174        H  0.64149589  0.07112360  0.27061350     0.08400
H175        H  0.65778420  0.09892677  0.17358873     0.09600
Cu176      Cu  0.60121101  0.10372658  0.24667675     0.44200
Cu177      Cu  0.61542375  0.12948356  0.16368913     0.42000
Cu178      Cu  0.57427224  0.17406299  0.19521434     0.43900
N179        N  0.57521224  0.12546452  0.25848310    -0.34000
N180        N  0.56573723  0.15181397  0.23956215    -0.28300
C181        C  0.54918156  0.15844956  0.25244658    -0.04400
C182        C  0.54807509  0.13510889  0.28086080     0.07800
C183        C  0.56482903  0.11459544  0.28413601     0.01600
H184        H  0.53849742  0.17743920  0.24113736     0.09300
H185        H  0.56892308  0.09218530  0.30300682     0.08300
N186        N  0.58329145  0.18733106  0.14921690    -0.35500
N187        N  0.59822934  0.16985291  0.13689565    -0.27700
C188        C  0.60082571  0.18628592  0.10712385    -0.02900
C189        C  0.58685283  0.21585938  0.10036043     0.05700
C190        C  0.57602919  0.21544324  0.12789578     0.03800
H191        H  0.61249580  0.17852734  0.09212343     0.08900
H192        H  0.56435746  0.23589456  0.13325385     0.07700
N193        N  0.51417780  0.66877866  0.73875424    -0.26700
N194        N  0.50388843  0.64284447  0.75661918    -0.34500
C195        C  0.51462352  0.61724204  0.77478966     0.01700
C196        C  0.53255474  0.62757304  0.76808153     0.07700
C197        C  0.53182886  0.66036166  0.74512148    -0.05400
H198        H  0.50967760  0.59355345  0.79208855     0.08400
H199        H  0.54322737  0.67732919  0.73422658     0.09600
Cu200      Cu  0.47581073  0.64473445  0.75731708     0.44200
Cu201      Cu  0.50345332  0.71468138  0.70732334     0.42000
Cu202      Cu  0.45332650  0.72372194  0.70844908     0.43900
N203        N  0.44800503  0.65433060  0.75815945    -0.34000
N204        N  0.43944776  0.68375041  0.74042077    -0.28300
C205        C  0.42149713  0.68256104  0.74745218    -0.04400
C206        C  0.41880262  0.65086464  0.77082660     0.07800
C207        C  0.43588027  0.63367406  0.77697400     0.01600
H208        H  0.41126975  0.70351568  0.73667711     0.09300
H209        H  0.43933904  0.60834246  0.79411851     0.08300
N210        N  0.47046922  0.75814923  0.67788404    -0.35500
N211        N  0.48847112  0.75526916  0.67735927    -0.27700
C212        C  0.49501032  0.78242995  0.65456959    -0.02900
C213        C  0.48040468  0.80332522  0.63996313     0.05700
C214        C  0.46510802  0.78705442  0.65548874     0.03800
H215        H  0.50938343  0.78721496  0.64972110     0.08900
H216        H  0.45102705  0.79545483  0.65084442     0.07700
N217        N  0.43692038  0.11143860  0.33518634    -0.26700
N218        N  0.44677410  0.13491267  0.31483864    -0.34500
C219        C  0.43571446  0.15373303  0.29308853     0.01700
C220        C  0.41801593  0.14153776  0.30001517     0.07700
C221        C  0.41922875  0.11473294  0.32686510    -0.05400
H222        H  0.44031378  0.17401862  0.27329514     0.08400
H223        H  0.40814469  0.09831321  0.33914981     0.09600
Cu224      Cu  0.47483904  0.13811662  0.31563050     0.44200
Cu225      Cu  0.44834003  0.07499414  0.37233887     0.42000
Cu226      Cu  0.49843322  0.07190686  0.37274441     0.43900
N227        N  0.50276957  0.13064986  0.31577273    -0.34000
N228        N  0.51164094  0.10551021  0.33637887    -0.28300
C229        C  0.52939159  0.10422374  0.32800484    -0.04400
C230        C  0.53165711  0.12986231  0.30078285     0.07800
C231        C  0.51453450  0.14618203  0.29379137     0.01600
H232        H  0.53967114  0.08479030  0.34006060     0.09300
H233        H  0.51068864  0.16618124  0.27334663     0.08300
N234        N  0.48196043  0.04120339  0.40626906    -0.35500
N235        N  0.46392040  0.04192176  0.40636003    -0.27700
C236        C  0.45786336  0.01911863  0.43201968    -0.02900
C237        C  0.47283218  0.00331168  0.44881083     0.05700
C238        C  0.48783181  0.01811739  0.43174168     0.03800
H239        H  0.44361254  0.01565902  0.43843037     0.08900
H240        H  0.50204222  0.01270131  0.43744166     0.07700
N241        N  0.31278767  0.14918943  0.21367918    -0.26700
N242        N  0.31907035  0.13606689  0.24195524    -0.34500
C243        C  0.30536380  0.11784798  0.25879643     0.01700
C244        C  0.28976906  0.11919375  0.24000571     0.07700
C245        C  0.29497963  0.13941310  0.21161046    -0.05400
H246        H  0.30652792  0.10581903  0.28324102     0.08400
H247        H  0.28623403  0.14911061  0.19180822     0.09600
Cu248      Cu  0.34569462  0.14580635  0.25683904     0.44200
Cu249      Cu  0.32780957  0.18574327  0.18143791     0.42000
Cu250      Cu  0.37353404  0.21445097  0.20456751     0.43900
N251        N  0.37328104  0.15664238  0.26372545    -0.34000
N252        N  0.38340025  0.18118649  0.24447400    -0.28300
C253        C  0.40077352  0.17990231  0.25468412    -0.04400
C254        C  0.40161530  0.15334686  0.28164610     0.07800
C255        C  0.38395679  0.13915924  0.28675839     0.01600
H256        H  0.41198107  0.19667187  0.24303655     0.09300
H257        H  0.37924589  0.11714007  0.30541793     0.08300
N258        N  0.36006924  0.24253198  0.16582793    -0.35500
N259        N  0.34345365  0.23091625  0.15707887    -0.27700
C260        C  0.33838336  0.25455503  0.13133006    -0.02900
C261        C  0.35242202  0.28277162  0.12354176     0.05700
C262        C  0.36602219  0.27414212  0.14585431     0.03800
H263        H  0.32532608  0.25179734  0.11944785     0.08900
H264        H  0.37940024  0.28892499  0.14715779     0.07700
N265        N  0.31009836  0.60615754  0.83621633    -0.26700
N266        N  0.31655761  0.62959940  0.81197762    -0.34500
C267        C  0.30239535  0.64465535  0.79440511     0.01700
C268        C  0.28630553  0.62976408  0.80841083     0.07700
C269        C  0.29185556  0.60565060  0.83486786    -0.05400
H270        H  0.30378972  0.66474518  0.77306594     0.08400
H271        H  0.28328533  0.58756605  0.85141954     0.09600
Cu272      Cu  0.34444816  0.63676579  0.80372937     0.44200
Cu273      Cu  0.32564325  0.57172992  0.86885091     0.42000
Cu274      Cu  0.37275153  0.56486083  0.85592922     0.43900
N275        N  0.37278248  0.63149179  0.80132398    -0.34000
N276        N  0.38254801  0.60511285  0.81987415    -0.28300
C277        C  0.40018830  0.60833533  0.81170882    -0.04400
C278        C  0.40175244  0.63812448  0.78690587     0.07800
C279        C  0.38414329  0.65236142  0.78085417     0.01600
H280        H  0.41107931  0.59012394  0.82313156     0.09300
H281        H  0.37987487  0.67571578  0.76277414     0.08300
N282        N  0.35997015  0.52895589  0.89150755    -0.35500
N283        N  0.34225145  0.53237774  0.89640395    -0.27700
C284        C  0.33745273  0.50673281  0.92121935    -0.02900
C285        C  0.35293874  0.48592770  0.93264592     0.05700
C286        C  0.36703823  0.50087139  0.91317852     0.03800
H287        H  0.32368322  0.50357747  0.93029255     0.08900
H288        H  0.38140247  0.49328013  0.91517593     0.07700
C289        C  0.35996437  0.38371670  0.07174880    -0.13700
C290        C  0.35200344  0.37042225  0.04265417     0.16700
C291        C  0.34433288  0.32845038  0.04018977     0.02900
C292        C  0.34466525  0.30050682  0.06684319    -0.12200
C293        C  0.35272696  0.31350215  0.09604892    -0.03300
C294        C  0.36047040  0.35563445  0.09839839     0.02200
C295        C  0.35235698  0.40024813  0.01477080     0.09000
N296        N  0.33597655  0.31405402  0.01090014     0.65400
H297        H  0.33868841  0.26813694  0.06454996     0.18300
N298        N  0.36820080  0.37109456  0.12791891     0.75900
H299        H  0.36588904  0.41619139  0.07372597     0.09800
C300        C  0.34095908  0.43720960  0.01359221     0.03500
C301        C  0.34164195  0.46484988  0.98682407    -0.05200
C302        C  0.35373938  0.45675051  0.96110564    -0.23600
C303        C  0.36564496  0.42039978  0.96291576     0.12700
C304        C  0.36469408  0.39229362  0.98954788    -0.12800
N305        N  0.32843787  0.44669297  0.03918311     0.64400
H306        H  0.33261178  0.49307266  0.98627266     0.12300
N307        N  0.37839286  0.41076278  0.93772286     0.61100
H308        H  0.37371041  0.36404779  0.99062844     0.08400
O309        O  0.35839676  0.39291925  0.14720455    -0.40400
O310        O  0.38532281  0.37207986  0.13091493    -0.39600
O311        O  0.34458304  0.28859079  0.99227306    -0.39600
O312        O  0.31905573  0.31949422  0.00700146    -0.37300
O313        O  0.39493802  0.42085054  0.94149434    -0.38200
O314        O  0.37418709  0.38322695  0.91628139    -0.34300
O315        O  0.33237205  0.47578047  0.05965203    -0.35700
O316        O  0.31222912  0.43315017  0.03729735    -0.40000
C317        C  0.49289193  0.87147415  0.56610287    -0.13700
C318        C  0.47833886  0.90127542  0.56554442     0.16700
C319        C  0.46507779  0.89985126  0.59011119     0.02900
C320        C  0.46633956  0.86838071  0.61438225    -0.12200
C321        C  0.48054123  0.83745665  0.61457601    -0.03300
C322        C  0.49407176  0.83945618  0.59018354     0.02200
C323        C  0.47617180  0.93033824  0.53734468     0.09000
N324        N  0.45019101  0.93006965  0.59059960     0.65400
H325        H  0.45597827  0.86816907  0.63321866     0.18300
N326        N  0.50822775  0.80739116  0.58792112     0.75900
H327        H  0.50294870  0.87169992  0.54672675     0.09800
C328        C  0.48933614  0.96204186  0.52963560     0.03500
C329        C  0.48778944  0.98578187  0.50095333    -0.05200
C330        C  0.47328012  0.97848961  0.47948650    -0.23600
C331        C  0.45990707  0.94713123  0.48756099     0.12700
C332        C  0.46146795  0.92350526  0.51636023    -0.12800
N333        N  0.50424540  0.97069804  0.55085968     0.64400
H334        H  0.49804916  0.01031511  0.49554272     0.12300
N335        N  0.44545698  0.93650071  0.46584022     0.61100
H336        H  0.45149422  0.89826824  0.52175967     0.08400
O337        O  0.52446075  0.81814613  0.59410666    -0.40400
O338        O  0.50521312  0.77207266  0.57308201    -0.39600
O339        O  0.43451999  0.91739010  0.58227094    -0.39600
O340        O  0.45187804  0.96588909  0.60544043    -0.37300
O341        O  0.44811094  0.90797468  0.44426073    -0.38200
O342        O  0.42934548  0.94792694  0.47265567    -0.34300
O343        O  0.52006604  0.95787645  0.54329596    -0.35700
O344        O  0.50226254  0.99809399  0.57343121    -0.40000
C345        C  0.59736227  0.38423470  0.00905183    -0.13700
C346        C  0.58697236  0.34772579  0.00030474     0.16700
C347        C  0.57707584  0.34850186  0.97117670     0.02900
C348        C  0.57822871  0.38502987  0.95090504    -0.12200
C349        C  0.58913775  0.42108938  0.95913723    -0.03300
C350        C  0.59850827  0.42076621  0.98891378     0.02200
C351        C  0.58633589  0.31007023  0.02268890     0.09000
N352        N  0.56640936  0.31183765  0.96127630     0.65400
H353        H  0.57098527  0.38446701  0.92802452     0.18300
N354        N  0.60851843  0.45796689  0.99983887     0.75900
H355        H  0.60447883  0.38461506  0.03208279     0.09800
C356        C  0.60238755  0.28755434  0.03108730     0.03500
C357        C  0.60202977  0.25632149  0.05564130    -0.05200
C358        C  0.58585071  0.24654942  0.07242455    -0.23600
C359        C  0.56953662  0.26815559  0.06302737     0.12700
C360        C  0.56998783  0.29961503  0.03839802    -0.12800
N361        N  0.61924748  0.29646692  0.01502384     0.64400
H362        H  0.61482741  0.24068838  0.06217171     0.12300
N363        N  0.55239432  0.25877421  0.07795760     0.61100
H364        H  0.55751973  0.31698776  0.03213056     0.08400
O365        O  0.62567379  0.45572644  0.00179014    -0.40400
O366        O  0.60018143  0.48832484  0.01439835    -0.39600
O367        O  0.54923204  0.31416872  0.96253060    -0.39600
O368        O  0.57384470  0.28153943  0.94520429    -0.37300
O369        O  0.54249642  0.22904176  0.06623954    -0.38200
O370        O  0.54530858  0.28672080  0.09666707    -0.34300
O371        O  0.63118645  0.31929619  0.02900527    -0.35700
O372        O  0.62357252  0.27460605  0.99027480    -0.40000
C373        C  0.24043899  0.08222155  0.23938133    -0.13700
C374        C  0.23464872  0.09524508  0.27025766     0.16700
C375        C  0.24734790  0.11463915  0.29149482     0.02900
C376        C  0.26537569  0.12074599  0.28148943    -0.12200
C377        C  0.27100926  0.10880519  0.25031175    -0.03300
C378        C  0.25837241  0.08927421  0.22912040     0.02200
C379        C  0.21554008  0.08717100  0.28035316     0.09000
N380        N  0.24196169  0.13001100  0.32274824     0.65400
H381        H  0.27489517  0.13655433  0.29790444     0.18300
N382        N  0.26371528  0.07485547  0.19762603     0.75900
H383        H  0.23099983  0.06579493  0.22315845     0.09800
C384        C  0.20063540  0.10144810  0.26150030     0.03500
C385        C  0.18283237  0.09456039  0.27247523    -0.05200
C386        C  0.17954427  0.07416448  0.30221750    -0.23600
C387        C  0.19434618  0.05807384  0.32030701     0.12700
C388        C  0.21214766  0.06432016  0.30912064    -0.12800
N389        N  0.20334369  0.12514271  0.23213337     0.64400
H390        H  0.17151219  0.10754599  0.25844621     0.12300
N391        N  0.19146124  0.03460535  0.34970601     0.61100
H392        H  0.22345629  0.05123592  0.32312414     0.08400
O393        O  0.25799198  0.09506934  0.17307737    -0.40400
O394        O  0.27074257  0.03742578  0.19422861    -0.39600
O395        O  0.24722020  0.10981497  0.34763129    -0.39600
O396        O  0.23532250  0.16792023  0.32563829    -0.37300
O397        O  0.18850647  0.99400320  0.34858919    -0.38200
O398        O  0.19554270  0.05215638  0.37633226    -0.34300
O399        O  0.19987959  0.10696410  0.20545189    -0.35700
O400        O  0.20540233  0.16606560  0.23317937    -0.40000
C401        C  0.20293764  0.58921658  0.77502544    -0.13700
C402        C  0.21063801  0.63078492  0.77118859     0.16700
C403        C  0.20025900  0.66437612  0.75693218     0.02900
C404        C  0.18226261  0.65617613  0.74737546    -0.12200
C405        C  0.17465790  0.61437704  0.75075374    -0.03300
C406        C  0.18517099  0.58062096  0.76461456     0.02200
C407        C  0.22981477  0.63739173  0.78092391     0.09000
N408        N  0.20791978  0.70664203  0.75156987     0.65400
H409        H  0.17438099  0.68222910  0.73629315     0.18300
N410        N  0.17789483  0.53768615  0.76878845     0.75900
H411        H  0.21092831  0.56300539  0.78566830     0.09800
C412        C  0.23494244  0.63530096  0.81361290     0.03500
C413        C  0.25339523  0.63515265  0.82187992    -0.05200
C414        C  0.26709071  0.63584514  0.79804437    -0.23600
C415        C  0.26190710  0.63911465  0.76523317     0.12700
C416        C  0.24335146  0.64034763  0.75704852    -0.12800
N417        N  0.22155337  0.63178145  0.83863070     0.64400
H418        H  0.25699231  0.63331085  0.84726823     0.12300
N419        N  0.27509954  0.63689036  0.73982250     0.61100
H420        H  0.23948469  0.64086544  0.73173290     0.08400
O421        O  0.17064774  0.52749432  0.79541578    -0.40400
O422        O  0.18217653  0.50792363  0.74900650    -0.39600
O423        O  0.21441197  0.71589860  0.72415209    -0.39600
O424        O  0.20504028  0.73681681  0.77177742    -0.37300
O425        O  0.28039806  0.59998927  0.72979000    -0.38200
O426        O  0.27829868  0.67046238  0.72306807    -0.34300
O427        O  0.21833491  0.59490486  0.85101813    -0.35700
O428        O  0.21603654  0.66590197  0.85280519    -0.40000
C429        C  0.07870092  0.39636388  0.53499713    -0.13700
C430        C  0.09174839  0.36291906  0.53759352     0.16700
C431        C  0.10402662  0.36354760  0.56373420     0.02900
C432        C  0.10309092  0.39720956  0.58649407    -0.12200
C433        C  0.09026853  0.43122313  0.58376298    -0.03300
C434        C  0.07785708  0.43042201  0.55766164     0.02200
C435        C  0.09325645  0.32957898  0.51164394     0.09000
N436        N  0.11754074  0.33019563  0.56753570     0.65400
H437        H  0.11260389  0.39649216  0.60663456     0.18300
N438        N  0.06518776  0.46524106  0.55245637     0.75900
H439        H  0.06952549  0.39706915  0.51434704     0.09800
C440        C  0.07827770  0.30349263  0.50262698     0.03500
C441        C  0.08003142  0.27372733  0.47711224    -0.06600
C442        C  0.09654758  0.26909578  0.46018436    -0.23600
C443        C  0.11152302  0.29553806  0.46907008     0.12700
C444        C  0.10970621  0.32542131  0.49452646    -0.12800
N445        N  0.06133344  0.30608345  0.51966536     0.64400
H446        H  0.06839430  0.25338616  0.47094203     0.12300
N447        N  0.12830045  0.29441832  0.45141845     0.61100
H448        H  0.12115876  0.34653322  0.50039810     0.08400
O449        O  0.04838500  0.45864600  0.55696829    -0.40400
O450        O  0.07020556  0.49850789  0.53680163    -0.39600
O451        O  0.13401875  0.33877982  0.56136872    -0.39600
O452        O  0.11373143  0.29636406  0.58357840    -0.37300
O453        O  0.12991770  0.31733999  0.42624283    -0.38200
O454        O  0.14242119  0.27909549  0.46467145    -0.34300
O455        O  0.04791605  0.32506500  0.50671010    -0.35700
O456        O  0.05872429  0.28183974  0.54387827    -0.40000
C457        C  0.95688599  0.87703798  0.96447555    -0.13700
C458        C  0.97346956  0.89561299  0.97417949     0.16700
C459        C  0.98882481  0.89132771  0.95387619     0.02900
C460        C  0.98726564  0.86964987  0.92423798    -0.12200
C461        C  0.97068630  0.85092312  0.91432130    -0.03300
C462        C  0.95536739  0.85453169  0.93507442     0.02200
C463        C  0.97469067  0.91714650  0.00628794     0.09000
N464        N  0.00609641  0.90907937  0.96289277     0.65400
H465        H  0.99924444  0.86784293  0.90879444     0.18300
N466        N  0.93853318  0.83323082  0.92789463     0.75900
H467        H  0.94511408  0.87865157  0.98047344     0.09800
C468        C  0.96311197  0.95225119  0.01472945     0.03500
C469        C  0.96382468  0.97002972  0.04585809    -0.05200
C470        C  0.97586420  0.95346628  0.06919565    -0.23600
C471        C  0.98738391  0.91810747  0.06081437     0.12700
C472        C  0.98672120  0.90046128  0.02955863    -0.12800
N473        N  0.95066134  0.97044289  0.99184712     0.64400
H474        H  0.95494344  0.99752000  0.05168195     0.12300
N475        N  0.99876368  0.89756904  0.08433935     0.61100
H476        H  0.99520643  0.87223554  0.02379568     0.08400
O477        O  0.93653850  0.79356064  0.93544030    -0.40400
O478        O  0.92465926  0.85593396  0.92115214    -0.39600
O479        O  0.01838408  0.88386012  0.97334532    -0.39600
O480        O  0.01032936  0.94706216  0.95373967    -0.37300
O481        O  0.99199396  0.86924730  0.10296759    -0.38200
O482        O  0.01587703  0.90051955  0.08183270    -0.34300
O483        O  0.93380272  0.96313412  0.99481078    -0.35700
O484        O  0.95598133  0.00038707  0.97314362    -0.40000
C485        C  0.74624862  0.07460993  0.24308283    -0.13700
C486        C  0.73213378  0.08056256  0.26561146     0.16700
C487        C  0.73659800  0.08970800  0.29802020     0.02900
C488        C  0.75481669  0.09588579  0.30671859    -0.12200
C489        C  0.76890859  0.09342047  0.28370273    -0.03300
C490        C  0.76451477  0.08098432  0.25170159     0.02200
C491        C  0.71289936  0.07882099  0.25461549     0.09000
N492        N  0.72274397  0.09546182  0.32200986     0.65400
H493        H  0.75786541  0.10414508  0.33168460     0.18300
N494        N  0.77815081  0.07724356  0.22714026     0.75900
H495        H  0.74300545  0.06621767  0.21820468     0.09800
C496        C  0.70661276  0.10650725  0.22976517     0.03500
C497        C  0.68845152  0.10434668  0.21979107    -0.05200
C498        C  0.67611059  0.07527315  0.23426868    -0.23600
C499        C  0.68246551  0.04709485  0.25888404     0.12700
C500        C  0.70073697  0.04907441  0.26872872    -0.12800
N501        N  0.71829920  0.13844584  0.21541822     0.64400
H502        H  0.68385104  0.12700480  0.20129242     0.12300
N503        N  0.67080639  0.01512802  0.27321240     0.61100
H504        H  0.70552979  0.02673580  0.28730513     0.08400
O505        O  0.78325993  0.03975541  0.21803423    -0.40400
O506        O  0.78186273  0.11003252  0.20987652    -0.39600
O507        O  0.71992330  0.06549960  0.34234443    -0.39600
O508        O  0.71643282  0.13322256  0.32729207    -0.37300
O509        O  0.66931348  0.97813788  0.25995037    -0.38200
O510        O  0.66575723  0.01985940  0.30219118    -0.34300
O511        O  0.72421942  0.13246756  0.18708649    -0.35700
O512        O  0.71942486  0.17593903  0.22800783    -0.40000
C513        C  0.75041217  0.61396693  0.79303171    -0.13700
C514        C  0.73527081  0.61508969  0.77237905     0.16700
C515        C  0.73804374  0.61721520  0.73871822     0.02900
C516        C  0.75575392  0.61677854  0.72627713    -0.12200
C517        C  0.77091781  0.61484293  0.74681907    -0.03300
C518        C  0.76818568  0.61396730  0.78056460     0.02200
C519        C  0.71668240  0.61444021  0.78625830     0.09000
N520        N  0.72300586  0.61867085  0.71683192     0.65400
H521        H  0.75765838  0.61788080  0.70025087     0.18300
N522        N  0.78320858  0.61086622  0.80237396     0.75900
H523        H  0.74840821  0.61292311  0.81903604     0.09800
C524        C  0.71064766  0.57915372  0.80529453     0.03500
C525        C  0.69293694  0.57932207  0.81774615    -0.05200
C526        C  0.68096091  0.61424661  0.81171917    -0.23600
C527        C  0.68720932  0.65021745  0.79345609     0.12700
C528        C  0.70493941  0.64989333  0.78082637    -0.12800
N529        N  0.72211791  0.54218924  0.81121880     0.64400
H530        H  0.68837554  0.55104609  0.83141165     0.12300
N531        N  0.67612390  0.68819546  0.78894846     0.61100
H532        H  0.70969747  0.67793142  0.76707660     0.08400
O533        O  0.78816307  0.57376691  0.81242189    -0.40400
O534        O  0.78861162  0.64472460  0.81690542    -0.39600
O535        O  0.71880428  0.65441287  0.70355419    -0.39600
O536        O  0.71662559  0.58344084  0.70575751    -0.37300
O537        O  0.67617252  0.71774283  0.81026485    -0.38200
O538        O  0.66997870  0.69675242  0.76120053    -0.34300
O539        O  0.72941142  0.53769290  0.83861157    -0.35700
O540        O  0.72167370  0.51005643  0.79208223    -0.40000
C541        C  0.85058884  0.40030598  0.53520351    -0.13700
C542        C  0.85756512  0.41446863  0.50550566     0.16700
C543        C  0.86455543  0.45716298  0.50277965     0.02900
C544        C  0.86423458  0.48513779  0.52964024    -0.12200
C545        C  0.85666875  0.47151324  0.55914810    -0.03300
C546        C  0.85004398  0.42833590  0.56194335     0.02200
C547        C  0.85607281  0.38508484  0.47727129     0.09000
N548        N  0.87109969  0.47325593  0.47251961     0.65400
H549        H  0.86921521  0.51839190  0.52699018     0.18300
N550        N  0.84310050  0.41211344  0.59190471     0.75900
H551        H  0.84525219  0.36731447  0.53748552     0.09800
C552        C  0.87054178  0.35769737  0.46773015     0.03500
C553        C  0.86805041  0.32787851  0.44242916    -0.05200
C554        C  0.85121077  0.32432885  0.42634657    -0.23600
C555        C  0.83671321  0.35213303  0.43608427     0.12700
C556        C  0.83931451  0.38208732  0.46130618    -0.12800
N557        N  0.88761521  0.35865884  0.48428290     0.64400
H558        H  0.87933676  0.30649124  0.43598630     0.12300
N559        N  0.81938161  0.35123941  0.42041248     0.61100
H560        H  0.82805074  0.40301166  0.46874546     0.08400
O561        O  0.85387340  0.39383791  0.61144756    -0.40400
O562        O  0.82613258  0.40691082  0.59533637    -0.39600
O563        O  0.86047116  0.49470369  0.45454395    -0.39600
O564        O  0.88804380  0.47434412  0.46717065    -0.37300
O565        O  0.81631460  0.37767736  0.39767089    -0.38200
O566        O  0.80608078  0.33328484  0.43451560    -0.34300
O567        O  0.89073872  0.33100307  0.50619654    -0.35700
O568        O  0.90069767  0.38012179  0.47245208    -0.40000
loop_ 
_geom_bond_atom_site_label_1 
_geom_bond_atom_site_label_2 
_geom_bond_distance 
_geom_bond_site_symmetry_2 
_ccdc_geom_bond_type 
N1            N2   1.321       .  A
N1            C5   1.340       .  A
N1           Cu9   2.063       .  S
N2            C3   1.346       .  A
N2           Cu8   2.068       .  S
C3            C4   1.384       .  A
C3            H6   1.082       .  S
C4            C5   1.381       .  A
C4          C517   1.474       .  S
C5            H7   1.081       .  S
Cu8          N11   2.069       .  S
Cu9          N19   2.063       .  S
Cu10         N12   2.080       .  S
Cu10         N18   2.079       .  S
N11          N12   1.324       .  A
N11          C15   1.345       .  A
N12          C13   1.344       .  A
C13          C14   1.383       .  A
C13          H16   1.082       .  S
C14          C15   1.381       .  A
C14          C62   1.469       .  S
C15          H17   1.082       .  S
N18          N19   1.320       .  A
N18          C22   1.347       .  A
N19          C20   1.343       .  A
C20          C21   1.383       .  A
C20          H23   1.082       .  S
C21          C22   1.387       .  A
C21         C545   1.480       .  S
C22          H24   1.081       .  S
N25          N26   1.321       .  A
N25          C29   1.341       .  A
N25         Cu33   2.075       .  S
N26          C27   1.346       .  A
N26         Cu32   2.069       .  S
C27          C28   1.387       .  A
C27          H30   1.082       .  S
C28          C29   1.386       .  A
C28         C489   1.486       .  S
C29          H31   1.081       .  S
Cu32         N35   2.069       .  S
Cu33         N43   2.075       .  S
Cu34         N36   2.077       .  S
Cu34         N42   2.076       .  S
N35          N36   1.323       .  A
N35          C39   1.346       .  A
N36          C37   1.344       .  A
C37          C38   1.383       .  A
C37          H40   1.082       .  S
C38          C39   1.382       .  A
C38          C86   1.469       .  S
C39          H41   1.082       .  S
N42          N43   1.320       .  A
N42          C46   1.344       .  A
N43          C44   1.347       .  A
C44          C45   1.390       .  A
C44          H47   1.081       .  S
C45          C46   1.389       .  A
C45         C554   1.491       .  S
C46          H48   1.081       .  S
N49          N50   1.320   1_455  A
N49          C53   1.347       .  A
N49         Cu57   2.075   1_455  S
N50          C51   1.342   1_655  A
N50         Cu56   2.060       .  S
C51          C52   1.381       .  A
C51          H54   1.082       .  S
C52          C53   1.385       .  A
C52         C110   1.470       .  S
C53          H55   1.082       .  S
Cu56         N59   2.059       .  S
Cu57         N67   2.076       .  S
Cu58         N60   2.080       .  S
Cu58         N66   2.081       .  S
N59          N60   1.322       .  A
N59          C63   1.341       .  A
N60          C61   1.347       .  A
C61          C62   1.386       .  A
C61          H64   1.082       .  S
C62          C63   1.379       .  A
C63          H65   1.082       .  S
N66          N67   1.322       .  A
N66          C70   1.347       .  A
N67          C68   1.342       .  A
C68          C69   1.387       .  A
C68          H71   1.082       .  S
C69          C70   1.389       .  A
C69         C461   1.490       .  S
C70          H72   1.081       .  S
N73          N74   1.322       .  A
N73          C77   1.348       .  A
N73         Cu81   2.085       .  S
N74          C75   1.341       .  A
N74         Cu80   2.058   1_455  S
C75          C76   1.379       .  A
C75          H78   1.081       .  S
C76          C77   1.387       .  A
C76         C134   1.471       .  S
C77          H79   1.082       .  S
Cu80         N83   2.057       .  S
Cu81         N91   2.086   1_455  S
Cu82         N84   2.078       .  S
Cu82         N90   2.079       .  S
N83          N84   1.320       .  A
N83          C87   1.342       .  A
N84          C85   1.347       .  A
C85          C86   1.386       .  A
C85          H88   1.082       .  S
C86          C87   1.380       .  A
C87          H89   1.082       .  S
N90          N91   1.324       .  A
N90          C94   1.343   1_545  A
N91          C92   1.348   1_545  A
C92          C93   1.387       .  A
C92          H95   1.083   1_655  S
C93          C94   1.384       .  A
C93         C470   1.484       .  S
C94          H96   1.080       .  S
N97          N98   1.321       .  A
N97         C101   1.343       .  A
N97        Cu105   2.060       .  S
N98          C99   1.347       .  A
N98        Cu104   2.077       .  S
C99         C100   1.385       .  A
C99         H102   1.081       .  S
C100        C101   1.381       .  A
C100        C405   1.474       .  S
C101        H103   1.081       .  S
Cu104       N107   2.078       .  S
Cu105       N115   2.060       .  S
Cu106       N108   2.078       .  S
Cu106       N114   2.077       .  S
N107        N108   1.324       .  A
N107        C111   1.346       .  A
N108        C109   1.344       .  A
C109        C110   1.382       .  A
C109        H112   1.082       .  S
C110        C111   1.382       .  A
C111        H113   1.081       .  S
N114        N115   1.320       .  A
N114        C118   1.348       .  A
N115        C116   1.339       .  A
C116        C117   1.385       .  A
C116        H119   1.080       .  S
C117        C118   1.390       .  A
C117        C433   1.486       .  S
C118        H120   1.082       .  S
N121        N122   1.322       .  A
N121        C125   1.342       .  A
N121       Cu129   2.064       .  S
N122        C123   1.344       .  A
N122       Cu128   2.069       .  S
C123        C124   1.384       .  A
C123        H126   1.081       .  S
C124        C125   1.381       .  A
C124        C386   1.471       .  S
C125        H127   1.084       .  S
Cu128       N131   2.069       .  S
Cu129       N139   2.065       .  S
Cu130       N132   2.077       .  S
Cu130       N138   2.076       .  S
N131        N132   1.322       .  A
N131        C135   1.346       .  A
N132        C133   1.344       .  A
C133        C134   1.384       .  A
C133        H136   1.082       .  S
C134        C135   1.382       .  A
C135        H137   1.081       .  S
N138        N139   1.321       .  A
N138        C142   1.344       .  A
N139        C140   1.344       .  A
C140        C141   1.385       .  A
C140        H143   1.082       .  S
C141        C142   1.387       .  A
C141        C442   1.483       .  S
C142        H144   1.080       .  S
N145        N146   1.321       .  A
N145        C149   1.341       .  A
N145       Cu153   2.070       .  S
N146        C147   1.345       .  A
N146       Cu152   2.069       .  S
C147        C148   1.385       .  A
C147        H150   1.082       .  S
C148        C149   1.385       .  A
C148        C526   1.479       .  S
C149        H151   1.081       .  S
Cu152       N155   2.069       .  S
Cu153       N163   2.070       .  S
Cu154       N156   2.066       .  S
Cu154       N162   2.065       .  S
N155        N156   1.322       .  A
N155        C159   1.345       .  A
N156        C157   1.342       .  A
C157        C158   1.381       .  A
C157        H160   1.082       .  S
C158        C159   1.382       .  A
C158        C196   1.466       .  S
C159        H161   1.081       .  S
N162        N163   1.320       .  A
N162        C166   1.344       .  A
N163        C164   1.344       .  A
C164        C165   1.386       .  A
C164        H167   1.081       .  S
C165        C166   1.386       .  A
C165        C349   1.481       .  S
C166        H168   1.080       .  S
N169        N170   1.323       .  A
N169        C173   1.344       .  A
N169       Cu177   2.085       .  S
N170        C171   1.346       .  A
N170       Cu176   2.074       .  S
C171        C172   1.385       .  A
C171        H174   1.082       .  S
C172        C173   1.388       .  A
C172        C498   1.484       .  S
C173        H175   1.081       .  S
Cu176       N179   2.074       .  S
Cu177       N187   2.084       .  S
Cu178       N180   2.054       .  S
Cu178       N186   2.054       .  S
N179        N180   1.322       .  A
N179        C183   1.347       .  A
N180        C181   1.339       .  A
C181        C182   1.379       .  A
C181        H184   1.082       .  S
C182        C183   1.385       .  A
C182        C230   1.466       .  S
C183        H185   1.082       .  S
N186        N187   1.318       .  A
N186        C190   1.343       .  A
N187        C188   1.344       .  A
C188        C189   1.394       .  A
C188        H191   1.081       .  S
C189        C190   1.387       .  A
C189        C358   1.492       .  S
C190        H192   1.081       .  S
N193        N194   1.321       .  A
N193        C197   1.345       .  A
N193       Cu201   2.070       .  S
N194        C195   1.341       .  A
N194       Cu200   2.059       .  S
C195        C196   1.380       .  A
C195        H198   1.082       .  S
C196        C197   1.383       .  A
C197        H199   1.082       .  S
Cu200       N203   2.059       .  S
Cu201       N211   2.071       .  S
Cu202       N204   2.069       .  S
Cu202       N210   2.071       .  S
N203        N204   1.320       .  A
N203        C207   1.340       .  A
N204        C205   1.347       .  A
C205        C206   1.384       .  A
C205        H208   1.082       .  S
C206        C207   1.381       .  A
C206        C278   1.468       .  S
C207        H209   1.081       .  S
N210        N211   1.322       .  A
N210        C214   1.340       .  A
N211        C212   1.346       .  A
C212        C213   1.386       .  A
C212        H215   1.082       .  S
C213        C214   1.385       .  A
C213        C321   1.482       .  S
C214        H216   1.081       .  S
N217        N218   1.322       .  A
N217        C221   1.346       .  A
N217       Cu225   2.077       .  S
N218        C219   1.342       .  A
N218       Cu224   2.060       .  S
C219        C220   1.380       .  A
C219        H222   1.082       .  S
C220        C221   1.384       .  A
C220        C254   1.468       .  S
C221        H223   1.082       .  S
Cu224       N227   2.059       .  S
Cu225       N235   2.077       .  S
Cu226       N228   2.064       .  S
Cu226       N234   2.065       .  S
N227        N228   1.320       .  A
N227        C231   1.340       .  A
N228        C229   1.346       .  A
C229        C230   1.383       .  A
C229        H232   1.082       .  S
C230        C231   1.381       .  A
C231        H233   1.082       .  S
N234        N235   1.322       .  A
N234        C238   1.341       .  A
N235        C236   1.346       .  A
C236        C237   1.386       .  A
C236        H239   1.083       .  S
C237        C238   1.383       .  A
C237        C330   1.480   1_545  S
C238        H240   1.081       .  S
N241        N242   1.321       .  A
N241        C245   1.343       .  A
N241       Cu249   2.060       .  S
N242        C243   1.344       .  A
N242       Cu248   2.070       .  S
C243        C244   1.385       .  A
C243        H246   1.080       .  S
C244        C245   1.382       .  A
C244        C377   1.474       .  S
C245        H247   1.083       .  S
Cu248       N251   2.070       .  S
Cu249       N259   2.060       .  S
Cu250       N252   2.072       .  S
Cu250       N258   2.071       .  S
N251        N252   1.323       .  A
N251        C255   1.345       .  A
N252        C253   1.343       .  A
C253        C254   1.382       .  A
C253        H256   1.082       .  S
C254        C255   1.382       .  A
C255        H257   1.082       .  S
N258        N259   1.321       .  A
N258        C262   1.345       .  A
N259        C260   1.341       .  A
C260        C261   1.382       .  A
C260        H263   1.080       .  S
C261        C262   1.386       .  A
C261        C293   1.477       .  S
C262        H264   1.082       .  S
N265        N266   1.321       .  A
N265        C269   1.339       .  A
N265       Cu273   2.058       .  S
N266        C267   1.349       .  A
N266       Cu272   2.084       .  S
C267        C268   1.391       .  A
C267        H270   1.081       .  S
C268        C269   1.382       .  A
C268        C414   1.485       .  S
C269        H271   1.082       .  S
Cu272       N275   2.085       .  S
Cu273       N283   2.058       .  S
Cu274       N276   2.064       .  S
Cu274       N282   2.062       .  S
N275        N276   1.324       .  A
N275        C279   1.349       .  A
N276        C277   1.339       .  A
C277        C278   1.378       .  A
C277        H280   1.082       .  S
C278        C279   1.385       .  A
C279        H281   1.081       .  S
N282        N283   1.318       .  A
N282        C286   1.346       .  A
N283        C284   1.340       .  A
C284        C285   1.385       .  A
C284        H287   1.081       .  S
C285        C286   1.387       .  A
C285        C302   1.480       .  S
C286        H288   1.081       .  S
C289        C290   1.399       .  A
C289        C294   1.399       .  A
C289        H299   1.088       .  S
C290        C291   1.406       .  A
C290        C295   1.472       .  S
C291        C292   1.396       .  A
C291        N296   1.429       .  S
C292        C293   1.404       .  A
C292        H297   1.088       .  S
C293        C294   1.413       .  A
C294        N298   1.428       .  S
C295        C300   1.405       .  A
C295        C304   1.400   1_554  A
N296        O311   1.262   1_554  A
N296        O312   1.262       .  A
N298        O309   1.262       .  A
N298        O310   1.262       .  A
C300        C301   1.395   1_554  A
C300        N305   1.428       .  S
C301        C302   1.405       .  A
C301        H306   1.087       .  S
C302        C303   1.414       .  A
C303        C304   1.400       .  A
C303        N307   1.428       .  S
C304        H308   1.087       .  S
N305        O315   1.262       .  A
N305        O316   1.262       .  A
N307        O313   1.262       .  A
N307        O314   1.262       .  A
C317        C318   1.402       .  A
C317        C322   1.401       .  A
C317        H327   1.088       .  S
C318        C319   1.405       .  A
C318        C323   1.476       .  S
C319        C320   1.395       .  A
C319        N324   1.428       .  S
C320        C321   1.405       .  A
C320        H325   1.087       .  S
C321        C322   1.415       .  A
C322        N326   1.429       .  S
C323        C328   1.406       .  A
C323        C332   1.402       .  A
N324        O339   1.262       .  A
N324        O340   1.262       .  A
N326        O337   1.262       .  A
N326        O338   1.262       .  A
C328        C329   1.397       .  A
C328        N333   1.429       .  S
C329        C330   1.405       .  A
C329        H334   1.087   1_565  S
C330        C331   1.413       .  A
C331        C332   1.399       .  A
C331        N335   1.429       .  S
C332        H336   1.087       .  S
N333        O343   1.262       .  A
N333        O344   1.262       .  A
N335        O341   1.262       .  A
N335        O342   1.262       .  A
C345        C346   1.401       .  A
C345        C350   1.397   1_554  A
C345        H355   1.088       .  S
C346        C347   1.408   1_554  A
C346        C351   1.480       .  S
C347        C348   1.400       .  A
C347        N352   1.429       .  S
C348        C349   1.406       .  A
C348        H353   1.087       .  S
C349        C350   1.412       .  A
C350        N354   1.429       .  S
C351        C356   1.406       .  A
C351        C360   1.400       .  A
N352        O367   1.262       .  A
N352        O368   1.262       .  A
N354        O365   1.262   1_556  A
N354        O366   1.262   1_556  A
C356        C357   1.396       .  A
C356        N361   1.429       .  S
C357        C358   1.406       .  A
C357        H362   1.087       .  S
C358        C359   1.420       .  A
C359        C360   1.403       .  A
C359        N363   1.429       .  S
C360        H364   1.088       .  S
N361        O371   1.262       .  A
N361        O372   1.262   1_554  A
N363        O369   1.262       .  A
N363        O370   1.262       .  A
C373        C374   1.402       .  A
C373        C378   1.398       .  A
C373        H383   1.088       .  S
C374        C375   1.413       .  A
C374        C379   1.482       .  S
C375        C376   1.397       .  A
C375        N380   1.430       .  S
C376        C377   1.401       .  A
C376        H381   1.089       .  S
C377        C378   1.410       .  A
C378        N382   1.429       .  S
C379        C384   1.413       .  A
C379        C388   1.403       .  A
N380        O395   1.262       .  A
N380        O396   1.262       .  A
N382        O393   1.262       .  A
N382        O394   1.262       .  A
C384        C385   1.397       .  A
C384        N389   1.429       .  S
C385        C386   1.401       .  A
C385        H390   1.088       .  S
C386        C387   1.408       .  A
C387        C388   1.397       .  A
C387        N391   1.429       .  S
C388        H392   1.088       .  S
N389        O399   1.262       .  A
N389        O400   1.262       .  A
N391        O397   1.262   1_545  A
N391        O398   1.262       .  A
C401        C402   1.401       .  A
C401        C406   1.398       .  A
C401        H411   1.086       .  S
C402        C403   1.408       .  A
C402        C407   1.477       .  S
C403        C404   1.401       .  A
C403        N408   1.428       .  S
C404        C405   1.403       .  A
C404        H409   1.086       .  S
C405        C406   1.410       .  A
C406        N410   1.429       .  S
C407        C412   1.406       .  A
C407        C416   1.402       .  A
N408        O423   1.262       .  A
N408        O424   1.261       .  A
N410        O421   1.262       .  A
N410        O422   1.262       .  A
C412        C413   1.396       .  A
C412        N417   1.429       .  S
C413        C414   1.406       .  A
C413        H418   1.085       .  S
C414        C415   1.414       .  A
C415        C416   1.403       .  A
C415        N419   1.428       .  S
C416        H420   1.086       .  S
N417        O427   1.262       .  A
N417        O428   1.262       .  A
N419        O425   1.262       .  A
N419        O426   1.262       .  A
C429        C430   1.403       .  A
C429        C434   1.402       .  A
C429        H439   1.089       .  S
C430        C431   1.409       .  A
C430        C435   1.483       .  S
C431        C432   1.396       .  A
C431        N436   1.429       .  S
C432        C433   1.405       .  A
C432        H437   1.088       .  S
C433        C434   1.414       .  A
C434        N438   1.428       .  S
C435        C440   1.409       .  A
C435        C444   1.402       .  A
N436        O451   1.262       .  A
N436        O452   1.262       .  A
N438        O449   1.262       .  A
N438        O450   1.262       .  A
C440        C441   1.398       .  A
C440        N445   1.429       .  S
C441        C442   1.404       .  A
C441        H446   1.088       .  S
C442        C443   1.414       .  A
C443        C444   1.399       .  A
C443        N447   1.429       .  S
C444        H448   1.088       .  S
N445        O455   1.262       .  A
N445        O456   1.262       .  A
N447        O453   1.262       .  A
N447        O454   1.262       .  A
C457        C458   1.402       .  A
C457        C462   1.402       .  A
C457        H467   1.087       .  S
C458        C459   1.408       .  A
C458        C463   1.485   1_556  S
C459        C460   1.398       .  A
C459        N464   1.429   1_655  S
C460        C461   1.406       .  A
C460        H465   1.086       .  S
C461        C462   1.416       .  A
C462        N466   1.428       .  S
C463        C468   1.410       .  A
C463        C472   1.403       .  A
N464        O479   1.262       .  A
N464        O480   1.262       .  A
N466        O477   1.262       .  A
N466        O478   1.262       .  A
C468        C469   1.398       .  A
C468        N473   1.429   1_554  S
C469        C470   1.404       .  A
C469        H474   1.088       .  S
C470        C471   1.413       .  A
C471        C472   1.402       .  A
C471        N475   1.429       .  S
C472        H476   1.089       .  S
N473        O483   1.262       .  A
N473        O484   1.262   1_565  A
N475        O481   1.262       .  A
N475        O482   1.262   1_655  A
C485        C486   1.402       .  A
C485        C490   1.400       .  A
C485        H495   1.088       .  S
C486        C487   1.409       .  A
C486        C491   1.484       .  S
C487        C488   1.397       .  A
C487        N492   1.429       .  S
C488        C489   1.405       .  A
C488        H493   1.087       .  S
C489        C490   1.415       .  A
C490        N494   1.428       .  S
C491        C496   1.410       .  A
C491        C500   1.402       .  A
N492        O507   1.262       .  A
N492        O508   1.262       .  A
N494        O505   1.262       .  A
N494        O506   1.262       .  A
C496        C497   1.396       .  A
C496        N501   1.429       .  S
C497        C498   1.404       .  A
C497        H502   1.087       .  S
C498        C499   1.414       .  A
C499        C500   1.402       .  A
C499        N503   1.428       .  S
C500        H504   1.087       .  S
N501        O511   1.262       .  A
N501        O512   1.262       .  A
N503        O509   1.262   1_545  A
N503        O510   1.262       .  A
C513        C514   1.403       .  A
C513        C518   1.400       .  A
C513        H523   1.086       .  S
C514        C515   1.409       .  A
C514        C519   1.477       .  S
C515        C516   1.395       .  A
C515        N520   1.429       .  S
C516        C517   1.402       .  A
C516        H521   1.086       .  S
C517        C518   1.410       .  A
C518        N522   1.428       .  S
C519        C524   1.408       .  A
C519        C528   1.402       .  A
N520        O535   1.262       .  A
N520        O536   1.262       .  A
N522        O533   1.262       .  A
N522        O534   1.262       .  A
C524        C525   1.395       .  A
C524        N529   1.429       .  S
C525        C526   1.404       .  A
C525        H530   1.087       .  S
C526        C527   1.412       .  A
C527        C528   1.399       .  A
C527        N531   1.429       .  S
C528        H532   1.087       .  S
N529        O539   1.262       .  A
N529        O540   1.262       .  A
N531        O537   1.262       .  A
N531        O538   1.262       .  A
C541        C542   1.399       .  A
C541        C546   1.399       .  A
C541        H551   1.087       .  S
C542        C543   1.408       .  A
C542        C547   1.477       .  S
C543        C544   1.402       .  A
C543        N548   1.428       .  S
C544        C545   1.404       .  A
C544        H549   1.087       .  S
C545        C546   1.413       .  A
C546        N550   1.429       .  S
C547        C552   1.405       .  A
C547        C556   1.399       .  A
N548        O563   1.262       .  A
N548        O564   1.261       .  A
N550        O561   1.262       .  A
N550        O562   1.262       .  A
C552        C553   1.400       .  A
C552        N557   1.428       .  S
C553        C554   1.408       .  A
C553        H558   1.086       .  S
C554        C555   1.417       .  A
C555        C556   1.401       .  A
C555        N559   1.428       .  S
C556        H560   1.087       .  S
N557        O567   1.262       .  A
N557        O568   1.262       .  A
N559        O565   1.262       .  A
N559        O566   1.262       .  A
