geometry optimzed in LAMMPS
_audit_creation_date              2020-12-01 
_audit_creation_method            'lammps2cif' 
_symmetry_space_group_name_H-M    'P1' 
_symmetry_Int_Tables_number       1 
_symmetry_cell_setting            triclinic 
loop_ 
_symmetry_equiv_pos_as_xyz 
  x,y,z 
_cell_length_a                    40.80026008 
_cell_length_b                    35.67020208380763 
_cell_length_c                    34.25656607602176 
_cell_angle_alpha                 90.04065725034054 
_cell_angle_beta                  89.99853710516561 
_cell_angle_gamma                 89.98668074216148 
loop_ 
_atom_site_label 
_atom_site_type_symbol 
_atom_site_fract_x 
_atom_site_fract_y 
_atom_site_fract_z 
_atom_site_charge 
N1          N  0.36190372  0.93796121  0.51955232    -0.27300
N2          N  0.38471204  0.96350779  0.52616851    -0.35200
C3          C  0.38660040  0.98663288  0.49532689     0.01000
C4          C  0.36375274  0.97543022  0.46801371     0.07100
C5          C  0.34877573  0.94417558  0.48402258    -0.06000
H6          H  0.40516231  0.00799858  0.49162263     0.07700
H7          H  0.33123930  0.92591872  0.46988194     0.08900
Cu8        Cu  0.41752446  0.96105925  0.57204853     0.44200
Cu9        Cu  0.35286879  0.89379403  0.55791038     0.42000
Cu10       Cu  0.41391503  0.88209907  0.63583289     0.43900
N11         N  0.45585605  0.94547592  0.60795323    -0.34700
N12         N  0.45521043  0.91559397  0.63068551    -0.28900
C13         C  0.48570481  0.90894895  0.64407951    -0.05000
C14         C  0.50646284  0.93593745  0.62877944     0.07200
C15         C  0.48660641  0.95872488  0.60628148     0.01000
H16         H  0.49264191  0.88463493  0.66103682     0.08600
H17         H  0.49437005  0.98118958  0.58721285     0.07700
N18         N  0.37064511  0.85180502  0.63187612    -0.36100
N19         N  0.34887467  0.85527789  0.60344199    -0.28300
C20         C  0.32405552  0.83117982  0.60996494    -0.03600
C21         C  0.33050016  0.81188937  0.64416367     0.05100
C22         C  0.36017794  0.82567048  0.65722942     0.03100
H23         H  0.30272534  0.82827752  0.59144421     0.08200
H24         H  0.37327495  0.81731527  0.68327552     0.07100
N25         N  0.68592601  0.93681615  0.51760664    -0.27300
N26         N  0.66339435  0.96258385  0.52468014    -0.35200
C27         C  0.66115098  0.98565886  0.49383383     0.01000
C28         C  0.68346669  0.97418815  0.46602164     0.07100
C29         C  0.69850976  0.94283587  0.48175912    -0.06000
H30         H  0.64267054  0.00718376  0.49050995     0.07700
H31         H  0.71570478  0.92440128  0.46726398     0.08900
Cu32       Cu  0.63123048  0.96049176  0.57121164     0.44200
Cu33       Cu  0.69527998  0.89265424  0.55589099     0.42000
Cu34       Cu  0.63488748  0.88136632  0.63463911     0.43900
N35         N  0.59308356  0.94513744  0.60747318    -0.34700
N36         N  0.59372512  0.91516949  0.63007958    -0.28900
C37         C  0.56327899  0.90867244  0.64369958    -0.05000
C38         C  0.54255390  0.93584290  0.62866256     0.07200
C39         C  0.56238454  0.95858504  0.60609528     0.01000
H40         H  0.55632528  0.88432613  0.66059140     0.08600
H41         H  0.55460996  0.98114335  0.58714838     0.07700
N42         N  0.67803252  0.85088644  0.63016997    -0.36100
N43         N  0.69958808  0.85423051  0.60148646    -0.28300
C44         C  0.72442211  0.83008395  0.60781158    -0.03600
C45         C  0.71820254  0.81089407  0.64213227     0.05100
C46         C  0.68864552  0.82478333  0.65547200     0.03100
H47         H  0.74560895  0.82707981  0.58907306     0.08200
H48         H  0.67574006  0.81654416  0.68169206     0.07100
N49         N  0.68500225  0.02315716  0.37335844    -0.27300
N50         N  0.66218777  0.99760460  0.36679417    -0.35200
C51         C  0.66030672  0.97452359  0.39767260     0.01000
C52         C  0.68316373  0.98576158  0.42495847     0.07100
C53         C  0.69814151  0.01699051  0.40889327    -0.06000
H54         H  0.64175412  0.95315260  0.40140990     0.07700
H55         H  0.71569810  0.03525314  0.42299014     0.08900
Cu56       Cu  0.62937856  0.99996345  0.32090277     0.44200
Cu57       Cu  0.69404841  0.06724834  0.33489742     0.42000
Cu58       Cu  0.63299265  0.07878022  0.25694796     0.43900
N59         N  0.59105872  0.01545465  0.28493329    -0.34700
N60         N  0.59170948  0.04528838  0.26213366    -0.28900
C61         C  0.56122066  0.05190734  0.24871053    -0.05000
C62         C  0.54045867  0.02495242  0.26406289     0.07200
C63         C  0.56030815  0.00220938  0.28661998     0.01000
H64         H  0.55428869  0.07619108  0.23170351     0.08600
H65         H  0.55253777  0.97978915  0.30574112     0.07700
N66         N  0.67624593  0.10909303  0.26084378    -0.36100
N67         N  0.69802831  0.10567583  0.28927240    -0.28300
C68         C  0.72283695  0.12977260  0.28268530    -0.03600
C69         C  0.71636804  0.14900318  0.24845423     0.05100
C70         C  0.68668932  0.13519024  0.23543676     0.03100
H71         H  0.74417110  0.13272360  0.30119119     0.08200
H72         H  0.67357403  0.14349891  0.20938739     0.07100
N73         N  0.36104281  0.02432190  0.37532827    -0.27300
N74         N  0.38358136  0.99855282  0.36829433    -0.35200
C75         C  0.38582395  0.97551316  0.39916762     0.01000
C76         C  0.36349949  0.98701034  0.42695547     0.07100
C77         C  0.34845102  0.01833983  0.41117846    -0.06000
H78         H  0.40429591  0.95398201  0.40251436     0.07700
H79         H  0.33123242  0.03677205  0.42563691     0.08900
Cu80       Cu  0.41571997  0.00057145  0.32174326     0.44200
Cu81       Cu  0.35165964  0.06839232  0.33694666     0.42000
Cu82       Cu  0.41202875  0.07953913  0.25812292     0.43900
N83         N  0.45384678  0.01583761  0.28542362    -0.34700
N84         N  0.45320275  0.04575607  0.26274698    -0.28900
C85         C  0.48364631  0.05221124  0.24909506    -0.05000
C86         C  0.50436881  0.02506382  0.26418605     0.07200
C87         C  0.48454069  0.00238046  0.28681721     0.01000
H88         H  0.49060131  0.07651665  0.23213992     0.08600
H89         H  0.49231477  0.97986159  0.30581507     0.07700
N90         N  0.36883593  0.10994973  0.26251400    -0.36100
N91         N  0.34729029  0.10665176  0.29121450    -0.28300
C92         C  0.32242144  0.13073473  0.28482168    -0.03600
C93         C  0.32860825  0.14983783  0.25044117     0.05100
C94         C  0.35818245  0.13596336  0.23713627     0.03100
H95         H  0.30124419  0.13377036  0.30356955     0.08200
H96         H  0.37107885  0.14416324  0.21089646     0.07100
N97         N  0.36094469  0.43732535  0.37574355    -0.27300
N98         N  0.38396912  0.46265284  0.36930370    -0.35200
C99         C  0.38633986  0.48530763  0.40050671     0.01000
C100        C  0.36357898  0.47403859  0.42787363     0.07100
C101        C  0.34813025  0.44323715  0.41150635    -0.06000
H102        H  0.40510828  0.50642167  0.40432805     0.07700
H103        H  0.33047322  0.42505805  0.42551591     0.08900
Cu104      Cu  0.41631831  0.46055389  0.32293513     0.44200
Cu105      Cu  0.35127286  0.39372729  0.33682021     0.42000
Cu106      Cu  0.41200158  0.38207637  0.25847697     0.43900
N107        N  0.45419852  0.44532990  0.28617125    -0.34700
N108        N  0.45331900  0.41558861  0.26320850    -0.28900
C109        C  0.48364398  0.40912593  0.24917537    -0.05000
C110        C  0.50453640  0.43609736  0.26428345     0.07200
C111        C  0.48493035  0.45868087  0.28734571     0.01000
H112        H  0.49040763  0.38495007  0.23187127     0.08600
H113        H  0.49289307  0.48105909  0.30644003     0.07700
N114        N  0.36870981  0.35185877  0.26259141    -0.36100
N115        N  0.34701091  0.35536831  0.29110554    -0.28300
C116        C  0.32214816  0.33130494  0.28462768    -0.03600
C117        C  0.32849854  0.31199424  0.25038414     0.05100
C118        C  0.35816199  0.32572932  0.23724511     0.03100
H119        H  0.30087811  0.32839734  0.30324210     0.08200
H120        H  0.37120392  0.31733358  0.21116068     0.07100
N121        N  0.68528383  0.43797868  0.37231119    -0.27300
N122        N  0.66246338  0.46353075  0.36578229    -0.35200
C123        C  0.66036444  0.48640406  0.39684192     0.01000
C124        C  0.68310237  0.47504150  0.42420404     0.07100
C125        C  0.69823894  0.44395875  0.40798242    -0.06000
H126        H  0.64172000  0.50767546  0.40063976     0.07700
H127        H  0.71570765  0.42560109  0.42208574     0.08900
Cu128      Cu  0.62982748  0.46124032  0.31972884     0.44200
Cu129      Cu  0.69432635  0.39392351  0.33375312     0.42000
Cu130      Cu  0.63298308  0.38184587  0.25619926     0.43900
N131        N  0.59137798  0.44563629  0.28402371    -0.34700
N132        N  0.59182433  0.41561319  0.26143767    -0.28900
C133        C  0.56123035  0.40900014  0.24834246    -0.05000
C134        C  0.54062356  0.43614245  0.26370803     0.07200
C135        C  0.56066977  0.45899535  0.28590410     0.01000
H136        H  0.55412533  0.38458278  0.23161615     0.08600
H137        H  0.55307009  0.48156627  0.30496865     0.07700
N138        N  0.67622920  0.35144401  0.26012230    -0.36100
N139        N  0.69811370  0.35511829  0.28840940    -0.28300
C140        C  0.72288858  0.33093085  0.28194036    -0.03600
C141        C  0.71630723  0.31135841  0.24793076     0.05100
C142        C  0.68658403  0.32507162  0.23491532     0.03100
H143        H  0.74428359  0.32815346  0.30037315     0.08200
H144        H  0.67338845  0.31651778  0.20899988     0.07100
N145        N  0.36143830  0.52241148  0.52090291    -0.27300
N146        N  0.38425309  0.49685860  0.52745342    -0.35200
C147        C  0.38632759  0.47394290  0.49642353     0.01000
C148        C  0.36357561  0.48527432  0.46905999     0.07100
C149        C  0.34846243  0.51638821  0.48525028    -0.06000
H150        H  0.40497310  0.45267127  0.49263508     0.07700
H151        H  0.33100727  0.53474780  0.47112557     0.08900
Cu152      Cu  0.41691313  0.49921867  0.57348606     0.44200
Cu153      Cu  0.35245427  0.56654817  0.55938195     0.42000
Cu154      Cu  0.41375533  0.57872032  0.63694394     0.43900
N155        N  0.45535027  0.51487353  0.60919569    -0.34700
N156        N  0.45489927  0.54492021  0.63174948    -0.28900
C157        C  0.48549044  0.55154684  0.64484619    -0.05000
C158        C  0.50610128  0.52438968  0.62951887     0.07200
C159        C  0.48605972  0.50151257  0.60734255     0.01000
H160        H  0.49259163  0.57598294  0.66154488     0.08600
H161        H  0.49366442  0.47892241  0.58830584     0.07700
N162        N  0.37056122  0.60920649  0.63290351    -0.36100
N163        N  0.34869725  0.60549487  0.60459956    -0.28300
C164        C  0.32395938  0.62975742  0.61095398    -0.03600
C165        C  0.33054036  0.64942192  0.64490584     0.05100
C166        C  0.36022707  0.63568040  0.65801080     0.03100
H167        H  0.30258403  0.63252001  0.59248627     0.08200
H168        H  0.37340936  0.64428102  0.68391903     0.07100
N169        N  0.68572450  0.52306557  0.51745787    -0.27300
N170        N  0.66272877  0.49771724  0.52394684    -0.35200
C171        C  0.66037383  0.47501753  0.49277624     0.01000
C172        C  0.68311958  0.48628163  0.46538591     0.07100
C173        C  0.69853623  0.51712592  0.48170182    -0.06000
H174        H  0.64161893  0.45388276  0.48898503     0.07700
H175        H  0.71616045  0.53532023  0.46765551     0.08900
Cu176      Cu  0.63039594  0.49987610  0.57033175     0.44200
Cu177      Cu  0.69535248  0.56673837  0.55628404     0.42000
Cu178      Cu  0.63470565  0.57852927  0.63465689     0.43900
N179        N  0.59253037  0.51518086  0.60708456    -0.34700
N180        N  0.59340343  0.54497009  0.62998298    -0.28900
C181        C  0.56307563  0.55144886  0.64400142    -0.05000
C182        C  0.54218931  0.52444037  0.62895166     0.07200
C183        C  0.56180163  0.50181756  0.60594034     0.01000
H184        H  0.55630479  0.57565797  0.66125067     0.08600
H185        H  0.55384428  0.47939900  0.58689398     0.07700
N186        N  0.67798914  0.60876439  0.63042999    -0.36100
N187        N  0.69965252  0.60519377  0.60188669    -0.28300
C188        C  0.72452463  0.62926706  0.60825651    -0.03600
C189        C  0.71822364  0.64865327  0.64246259     0.05100
C190        C  0.68857441  0.63495026  0.65569433     0.03100
H191        H  0.74577125  0.63212638  0.58959595     0.08200
H192        H  0.67557021  0.64340498  0.68178523     0.07100
N193        N  0.86152600  0.93803212  0.87206805    -0.27300
N194        N  0.88427952  0.96364510  0.86551161    -0.35200
C195        C  0.88635555  0.98651293  0.89657895     0.01000
C196        C  0.86367305  0.97508011  0.92397256     0.07100
C197        C  0.84859661  0.94396311  0.90776310    -0.06000
H198        H  0.90494239  0.00784458  0.90034969     0.07700
H199        H  0.83117586  0.92556353  0.92187982     0.08900
Cu200      Cu  0.91684221  0.96148326  0.81936281     0.44200
Cu201      Cu  0.85250391  0.89398815  0.83349745     0.42000
Cu202      Cu  0.91363131  0.88216534  0.75569608     0.43900
N203        N  0.95521169  0.94599002  0.78345501    -0.34700
N204        N  0.95473960  0.91599894  0.76082299    -0.28900
C205        C  0.98530137  0.90944105  0.74758443    -0.05000
C206        C  0.00591825  0.93658857  0.76289341     0.07200
C207        C  0.98590825  0.95938816  0.78521323     0.01000
H208        H  0.99238647  0.88505663  0.73078818     0.08600
H209        H  0.99353727  0.98194108  0.80427824     0.07700
N210        N  0.87050752  0.85158993  0.75978374    -0.36100
N211        N  0.84869825  0.85517586  0.78816698    -0.28300
C212        C  0.82398904  0.83088898  0.78180766    -0.03600
C213        C  0.83053656  0.81133959  0.74777200     0.05100
C214        C  0.86017022  0.82517352  0.73462318     0.03100
H215        H  0.80265763  0.82803057  0.80033087     0.08200
H216        H  0.87331318  0.81667773  0.70864590     0.07100
N217        N  0.18563481  0.93828144  0.87442650    -0.27300
N218        N  0.16268368  0.96367439  0.86785665    -0.35200
C219        C  0.16034699  0.98645128  0.89897108     0.01000
C220        C  0.18305793  0.97518714  0.92640878     0.07100
C221        C  0.19843093  0.94426483  0.91017853    -0.06000
H222        H  0.14160708  0.00762233  0.90270912     0.07700
H223        H  0.21600072  0.92604084  0.92429144     0.08900
Cu224      Cu  0.13033378  0.96141920  0.82149674     0.44200
Cu225      Cu  0.19520100  0.89446998  0.83574493     0.40400
Cu226      Cu  0.13454571  0.88249271  0.75745705     0.43900
N227        N  0.09240306  0.94595922  0.78492190    -0.34700
N228        N  0.09324274  0.91609006  0.76213212    -0.28900
C229        C  0.06288168  0.90954491  0.74825818    -0.05000
C230        C  0.04200883  0.93658626  0.76329635     0.07200
C231        C  0.06166318  0.95930071  0.78614408     0.01000
H232        H  0.05608390  0.88526489  0.73113837     0.08600
H233        H  0.05373564  0.98177266  0.80514556     0.07700
N234        N  0.17782331  0.85221454  0.76175702    -0.36100
N235        N  0.19948776  0.85585683  0.79028608    -0.28300
C236        C  0.22435980  0.83175098  0.78399500    -0.03600
C237        C  0.21806192  0.81226482  0.74985270     0.05100
C238        C  0.18841016  0.82594508  0.73657736     0.03100
H239        H  0.24561084  0.82894610  0.80265813     0.08200
H240        H  0.17541131  0.81742587  0.71050884     0.07100
N241        N  0.86101496  0.02314917  0.01720590    -0.27300
N242        N  0.88400450  0.99778585  0.02371631    -0.35200
C243        C  0.88636610  0.97506714  0.99256014     0.01000
C244        C  0.86363588  0.98633645  0.96515137     0.07100
C245        C  0.84821811  0.01720144  0.98144489    -0.06000
H246        H  0.90512431  0.95392323  0.98878557     0.07700
H247        H  0.83060422  0.03540315  0.96737885     0.08900
Cu248      Cu  0.91636400  0.99997137  0.07006646     0.44200
Cu249      Cu  0.85137903  0.06685547  0.05601011     0.42000
Cu250      Cu  0.91213974  0.07870854  0.13424378     0.43900
N251        N  0.95430958  0.01534914  0.10665190    -0.34700
N252        N  0.95346408  0.04517285  0.12950258    -0.28900
C253        C  0.98382220  0.05170351  0.14339074    -0.05000
C254        C  0.00470030  0.02469664  0.12829757     0.07200
C255        C  0.98505189  0.00201895  0.10540160     0.01000
H256        H  0.99061286  0.07595130  0.16056413     0.08600
H257        H  0.99298425  0.97958427  0.08635514     0.07700
N258        N  0.86881653  0.10890281  0.13011560    -0.36100
N259        N  0.84710637  0.10531577  0.10162741    -0.28300
C260        C  0.82221756  0.12936503  0.10807149    -0.03600
C261        C  0.82855884  0.14874923  0.14226915     0.05100
C262        C  0.85824807  0.13507211  0.15541469     0.03100
H263        H  0.80093359  0.13220957  0.08946837     0.08200
H264        H  0.87129123  0.14353244  0.18147235     0.07100
N265        N  0.18518132  0.02341091  0.01954870    -0.27300
N266        N  0.16241699  0.99780193  0.02607182    -0.35200
C267        C  0.16031704  0.97498378  0.99496898     0.01000
C268        C  0.18299077  0.98644898  0.96758385     0.07100
C269        C  0.19809379  0.01752842  0.98383557    -0.06000
H270        H  0.14173040  0.95365446  0.99118177     0.07700
H271        H  0.21553643  0.03592251  0.96975022     0.08900
Cu272      Cu  0.12987713  0.99988553  0.07223970     0.44200
Cu273      Cu  0.19427200  0.06735165  0.05822616     0.42000
Cu274      Cu  0.13309878  0.07907010  0.13601736     0.43900
N275        N  0.09149819  0.01532280  0.10814877    -0.34700
N276        N  0.09196822  0.04528328  0.13082298    -0.28900
C277        C  0.06140420  0.05182607  0.14406273    -0.05000
C278        C  0.04078965  0.02469922  0.12870768     0.07200
C279        C  0.06080229  0.00192900  0.10636043     0.01000
H280        H  0.05431728  0.07618577  0.16089695     0.08600
H281        H  0.05317676  0.97940098  0.08726122     0.07700
N282        N  0.17630064  0.10952019  0.13209205    -0.36100
N283        N  0.19813198  0.10597561  0.10372673    -0.28300
C284        C  0.22289931  0.13015092  0.11023519    -0.03600
C285        C  0.21636489  0.14957912  0.14435054     0.05100
C286        C  0.18667900  0.13579541  0.15738590     0.03100
H287        H  0.24425486  0.13302075  0.09175344     0.08200
H288        H  0.17352480  0.14423434  0.18337500     0.07100
N289        N  0.86186239  0.52237839  0.87241384    -0.27300
N290        N  0.88469703  0.49685437  0.86578542    -0.35200
C291        C  0.88658531  0.47369575  0.89660034     0.01000
C292        C  0.86370655  0.48485048  0.92390618     0.07100
C293        C  0.84871346  0.51611261  0.90792038    -0.06000
H294        H  0.90518340  0.45236248  0.90031039     0.07700
H295        H  0.83117544  0.53436282  0.92208150     0.08900
Cu296      Cu  0.91757642  0.49943449  0.81998509     0.44200
Cu297      Cu  0.85287716  0.56664490  0.83416595     0.42000
Cu298      Cu  0.91408605  0.57866575  0.75650666     0.43900
N299        N  0.95597614  0.51516294  0.78426641    -0.34700
N300        N  0.95537028  0.54512959  0.76165229    -0.28900
C301        C  0.98589332  0.55182775  0.74839071    -0.05000
C302        C  0.00662830  0.52479081  0.76366092     0.07200
C303        C  0.98673026  0.50191686  0.78599780     0.01000
H304        H  0.99286049  0.57621190  0.73156568     0.08600
H305        H  0.99446018  0.47938928  0.80500982     0.07700
N306        N  0.87078929  0.60893645  0.76044265    -0.36100
N307        N  0.84895737  0.60533665  0.78879166    -0.28300
C308        C  0.82412768  0.62943651  0.78229071    -0.03600
C309        C  0.83062702  0.64886131  0.74819204     0.05100
C310        C  0.86035039  0.63515767  0.73516244     0.03100
H311        H  0.80274890  0.63224199  0.80075117     0.08200
H312        H  0.87349341  0.64361860  0.70918809     0.07100
N313        N  0.18593155  0.52435340  0.87538776    -0.27300
N314        N  0.16338924  0.49859131  0.86838283    -0.35200
C315        C  0.16113252  0.47559859  0.89929268     0.01000
C316        C  0.18345119  0.48711613  0.92707193     0.07100
C317        C  0.19851236  0.51840889  0.91125125    -0.06000
H318        H  0.14265949  0.45408154  0.90266290     0.07700
H319        H  0.21573018  0.53684748  0.92568872     0.08900
Cu320      Cu  0.13126800  0.50053139  0.82180190     0.44200
Cu321      Cu  0.19533216  0.56840067  0.83698273     0.42000
Cu322      Cu  0.13498026  0.57949461  0.75818899     0.43900
N323        N  0.09319326  0.51573976  0.78535842    -0.34700
N324        N  0.09385746  0.54566179  0.76268873    -0.28900
C325        C  0.06344543  0.55209329  0.74892868    -0.05000
C326        C  0.04271619  0.52492381  0.76393229     0.07200
C327        C  0.06251005  0.50225011  0.78663208     0.01000
H328        H  0.05650992  0.57639512  0.73195160     0.08600
H329        H  0.05470926  0.47972003  0.80559526     0.07700
N330        N  0.17808613  0.61000816  0.76261154    -0.36100
N331        N  0.19964050  0.60673046  0.79130353    -0.28300
C332        C  0.22445502  0.63087846  0.78492769    -0.03600
C333        C  0.21821882  0.64999807  0.75056566     0.05100
C334        C  0.18867614  0.63606687  0.73725495     0.03100
H335        H  0.24563696  0.63393392  0.80366161     0.08200
H336        H  0.17576430  0.64424663  0.71101785     0.07100
N337        N  0.86100129  0.43613050  0.01669774    -0.27300
N338        N  0.88357383  0.46186818  0.02365781    -0.35200
C339        C  0.88584185  0.48482524  0.99272233     0.01000
C340        C  0.86349859  0.47330723  0.96497393     0.07100
C341        C  0.84840906  0.44205324  0.98083641    -0.06000
H342        H  0.90432428  0.50632734  0.98932423     0.07700
H343        H  0.83114963  0.42363627  0.96643953     0.08900
Cu344      Cu  0.91568147  0.45995872  0.07024449     0.44200
Cu345      Cu  0.85155026  0.39218018  0.05519539     0.42000
Cu346      Cu  0.91190617  0.38114793  0.13403502     0.43900
N347        N  0.95373739  0.44480449  0.10672835    -0.34700
N348        N  0.95306316  0.41492864  0.12946291    -0.28900
C349        C  0.98347273  0.40852546  0.14325054    -0.05000
C350        C  0.00420581  0.43566816  0.12819611     0.07200
C351        C  0.98441876  0.45829267  0.10543808     0.01000
H352        H  0.99040332  0.38426353  0.16029224     0.08600
H353        H  0.99222205  0.48078837  0.08643263     0.07700
N354        N  0.86872855  0.35074268  0.12969318    -0.36100
N355        N  0.84717660  0.35400174  0.10099535    -0.28300
C356        C  0.82231581  0.32993247  0.10743747    -0.03600
C357        C  0.82851869  0.31088143  0.14184734     0.05100
C358        C  0.85809028  0.32477096  0.15511745     0.03100
H359        H  0.80113562  0.32686931  0.08870220     0.08200
H360        H  0.87099593  0.31660991  0.18136530     0.07100
N361        N  0.18507197  0.43814950  0.01971466    -0.27300
N362        N  0.16219854  0.46364393  0.02627808    -0.35200
C363        C  0.16029005  0.48674377  0.99541679     0.01000
C364        C  0.18319526  0.47558231  0.96814597     0.07100
C365        C  0.19822815  0.44437677  0.98420233    -0.06000
H366        H  0.14167612  0.50805188  0.99166460     0.07700
H367        H  0.21581247  0.42614627  0.97009551     0.08900
Cu368      Cu  0.12932778  0.46111678  0.07209226     0.44200
Cu369      Cu  0.19410992  0.39398696  0.05808638     0.42000
Cu370      Cu  0.13286440  0.38204470  0.13575425     0.43900
N371        N  0.09094147  0.44544839  0.10786185    -0.34700
N372        N  0.09156179  0.41553079  0.13054472    -0.28900
C373        C  0.06104161  0.40883632  0.14381905    -0.05000
C374        C  0.04029334  0.43582578  0.12848469     0.07200
C375        C  0.06018115  0.45866841  0.10609935     0.01000
H376        H  0.05408627  0.38448037  0.16069524     0.08600
H377        H  0.05244051  0.48114838  0.08703240     0.07700
N378        N  0.17617893  0.35181153  0.13188761    -0.36100
N379        N  0.19802839  0.35538471  0.10355327    -0.28300
C380        C  0.22285947  0.33130093  0.11011407    -0.03600
C381        C  0.21633863  0.31191509  0.14423239     0.05100
C382        C  0.18660403  0.32562399  0.15721194     0.03100
H383        H  0.24424519  0.32846581  0.09166979     0.08200
H384        H  0.17343837  0.31718181  0.18317683     0.07100
O385        O  0.31859561  0.69122837  0.69700649    -0.73000
O386        O  0.26401735  0.77109419  0.74850146    -0.73900
O387        O  0.26410386  0.69123297  0.74888984    -0.62600
O388        O  0.31851322  0.77065022  0.69663505    -0.71000
O389        O  0.28465652  0.77062030  0.64588653    -0.70500
O390        O  0.23027533  0.69120537  0.69811448    -0.61800
O391        O  0.23017926  0.77058616  0.69773885    -0.74300
O392        O  0.28472961  0.69075947  0.64626991    -0.73100
Cu393      Cu  0.29249035  0.73106434  0.72453466     1.04600
Cu394      Cu  0.25628580  0.73078389  0.67022792     1.04300
C395        C  0.31031523  0.67847890  0.66356287     0.93200
C396        C  0.23841449  0.78332423  0.73119888     0.92400
C397        C  0.23852922  0.67879706  0.73168638     0.84500
C398        C  0.31023470  0.78306561  0.66307308     0.90800
O399        O  0.73030807  0.76959725  0.69449757    -0.73000
O400        O  0.78475671  0.69010906  0.74653822    -0.73900
O401        O  0.78476401  0.76996908  0.74634295    -0.62600
O402        O  0.73029496  0.69021859  0.69467868    -0.71000
O403        O  0.76414883  0.68983003  0.64392685    -0.70500
O404        O  0.81862059  0.76963381  0.69559363    -0.61800
O405        O  0.81863357  0.69021318  0.69580678    -0.74300
O406        O  0.76413121  0.76968849  0.64371557    -0.73100
Cu407      Cu  0.75635671  0.72997772  0.72228927     1.04600
Cu408      Cu  0.79256707  0.72983323  0.66798469     1.04300
C409        C  0.73854508  0.78207386  0.66094914     0.93200
C410        C  0.81035268  0.67771855  0.72933544     0.92400
C411        C  0.81033327  0.78230599  0.72906771     0.84500
C412        C  0.73855153  0.67755377  0.66119335     0.90800
O413        O  0.22822858  0.27051561  0.19661227    -0.73000
O414        O  0.28262698  0.19096928  0.24875428    -0.73900
O415        O  0.28257875  0.27081843  0.24869337    -0.62600
O416        O  0.22824590  0.19110597  0.19668650    -0.71000
O417        O  0.26220599  0.19085181  0.14603505    -0.70500
O418        O  0.31654900  0.27051616  0.19805144    -0.61800
O419        O  0.31655204  0.19114060  0.19806930    -0.74300
O420        O  0.26222083  0.27069649  0.14599038    -0.73100
Cu421      Cu  0.25423227  0.23085405  0.22445860     1.04600
Cu422      Cu  0.29056176  0.23079821  0.17026685     1.04300
C423        C  0.23658260  0.28305433  0.16312617     0.93200
C424        C  0.30825922  0.17862730  0.23158249     0.92400
C425        C  0.30821392  0.28312519  0.23153385     0.84500
C426        C  0.23658720  0.17850809  0.16320147     0.90800
O427        O  0.76216272  0.27008079  0.24634220    -0.73000
O428        O  0.81655930  0.19030922  0.19452617    -0.73900
O429        O  0.81650002  0.26968030  0.19430596    -0.62600
O430        O  0.76222590  0.19023431  0.24660007    -0.71000
O431        O  0.72824549  0.19027459  0.19596869    -0.70500
O432        O  0.78256497  0.26974013  0.14363158    -0.61800
O433        O  0.78259607  0.18989270  0.14388100    -0.74300
O434        O  0.72818854  0.26968733  0.19570740    -0.73100
Cu435      Cu  0.79054133  0.23008259  0.22221340     1.04600
Cu436      Cu  0.75421036  0.22989100  0.16802568     1.04300
C437        C  0.73653249  0.28237550  0.22915255     0.93200
C438        C  0.80824143  0.17763428  0.16106693     0.92400
C439        C  0.80819152  0.28212402  0.16076914     0.84500
C440        C  0.73660066  0.17782288  0.22949098     0.90800
loop_ 
_geom_bond_atom_site_label_1 
_geom_bond_atom_site_label_2 
_geom_bond_distance 
_geom_bond_site_symmetry_2 
_ccdc_geom_bond_type 
N1            N2   1.322       .  A
N1            C5   1.348       .  A
N1           Cu9   2.085       .  S
N2            C3   1.343       .  A
N2           Cu8   2.066       .  S
C3            C4   1.380       .  A
C3            H6   1.082   1_565  S
C4            C5   1.385       .  A
C4           C76   1.466       .  S
C5            H7   1.082       .  S
Cu8          N11   2.066       .  S
Cu9          N19   2.086       .  S
Cu10         N12   2.073       .  S
Cu10         N18   2.074       .  S
N11          N12   1.321       .  A
N11          C15   1.342       .  A
N12          C13   1.347       .  A
C13          C14   1.386       .  A
C13          H16   1.082       .  S
C14          C15   1.383       .  A
C14          C38   1.473       .  S
C15          H17   1.082       .  S
N18          N19   1.324       .  A
N18          C22   1.344       .  A
N19          C20   1.347       .  A
C20          C21   1.384       .  A
C20          H23   1.082       .  S
C21          C22   1.381       .  A
C21         C398   1.470       .  S
C22          H24   1.082       .  S
N25          N26   1.322       .  A
N25          C29   1.348       .  A
N25         Cu33   2.086       .  S
N26          C27   1.343       .  A
N26         Cu32   2.066       .  S
C27          C28   1.380       .  A
C27          H30   1.082   1_565  S
C28          C29   1.385       .  A
C28          C52   1.466       .  S
C29          H31   1.082       .  S
Cu32         N35   2.066       .  S
Cu33         N43   2.086       .  S
Cu34         N36   2.073       .  S
Cu34         N42   2.074       .  S
N35          N36   1.321       .  A
N35          C39   1.342       .  A
N36          C37   1.347       .  A
C37          C38   1.386       .  A
C37          H40   1.082       .  S
C38          C39   1.383       .  A
C39          H41   1.082       .  S
N42          N43   1.324       .  A
N42          C46   1.344       .  A
N43          C44   1.347       .  A
C44          C45   1.384       .  A
C44          H47   1.082       .  S
C45          C46   1.381       .  A
C45         C409   1.470       .  S
C46          H48   1.082       .  S
N49          N50   1.322   1_545  A
N49          C53   1.348       .  A
N49         Cu57   2.085       .  S
N50          C51   1.343       .  A
N50         Cu56   2.067       .  S
C51          C52   1.380       .  A
C51          H54   1.082       .  S
C52          C53   1.385   1_565  A
C53          H55   1.082       .  S
Cu56         N59   2.066   1_565  S
Cu57         N67   2.086       .  S
Cu58         N60   2.073       .  S
Cu58         N66   2.074       .  S
N59          N60   1.321       .  A
N59          C63   1.342       .  A
N60          C61   1.347       .  A
C61          C62   1.386       .  A
C61          H64   1.082       .  S
C62          C63   1.383       .  A
C62          C86   1.472       .  S
C63          H65   1.082   1_545  S
N66          N67   1.324       .  A
N66          C70   1.344       .  A
N67          C68   1.347       .  A
C68          C69   1.384       .  A
C68          H71   1.082       .  S
C69          C70   1.381       .  A
C69         C440   1.470       .  S
C70          H72   1.082       .  S
N73          N74   1.322   1_545  A
N73          C77   1.348       .  A
N73         Cu81   2.085       .  S
N74          C75   1.343       .  A
N74         Cu80   2.066   1_565  S
C75          C76   1.380       .  A
C75          H78   1.082       .  S
C76          C77   1.385   1_565  A
C77          H79   1.082       .  S
Cu80         N83   2.065       .  S
Cu81         N91   2.086       .  S
Cu82         N84   2.073       .  S
Cu82         N90   2.075       .  S
N83          N84   1.321       .  A
N83          C87   1.342       .  A
N84          C85   1.347       .  A
C85          C86   1.386       .  A
C85          H88   1.082       .  S
C86          C87   1.383       .  A
C87          H89   1.082   1_545  S
N90          N91   1.324       .  A
N90          C94   1.344       .  A
N91          C92   1.347       .  A
C92          C93   1.384       .  A
C92          H95   1.082       .  S
C93          C94   1.381       .  A
C93         C424   1.470       .  S
C94          H96   1.082       .  S
N97          N98   1.322       .  A
N97         C101   1.348       .  A
N97        Cu105   2.086       .  S
N98          C99   1.343       .  A
N98        Cu104   2.066       .  S
C99         C100   1.380       .  A
C99         H102   1.082       .  S
C100        C101   1.385       .  A
C100        C148   1.466       .  S
C101        H103   1.082       .  S
Cu104       N107   2.066       .  S
Cu105       N115   2.086       .  S
Cu106       N108   2.073       .  S
Cu106       N114   2.074       .  S
N107        N108   1.321       .  A
N107        C111   1.342       .  A
N108        C109   1.347       .  A
C109        C110   1.386       .  A
C109        H112   1.082       .  S
C110        C111   1.383       .  A
C110        C134   1.472       .  S
C111        H113   1.082       .  S
N114        N115   1.324       .  A
N114        C118   1.344       .  A
N115        C116   1.347       .  A
C116        C117   1.384       .  A
C116        H119   1.082       .  S
C117        C118   1.381       .  A
C117        C425   1.470       .  S
C118        H120   1.082       .  S
N121        N122   1.322       .  A
N121        C125   1.348       .  A
N121       Cu129   2.085       .  S
N122        C123   1.343       .  A
N122       Cu128   2.066       .  S
C123        C124   1.380       .  A
C123        H126   1.082       .  S
C124        C125   1.385       .  A
C124        C172   1.466       .  S
C125        H127   1.082       .  S
Cu128       N131   2.066       .  S
Cu129       N139   2.086       .  S
Cu130       N132   2.074       .  S
Cu130       N138   2.075       .  S
N131        N132   1.321       .  A
N131        C135   1.342       .  A
N132        C133   1.347       .  A
C133        C134   1.386       .  A
C133        H136   1.082       .  S
C134        C135   1.382       .  A
C135        H137   1.082       .  S
N138        N139   1.324       .  A
N138        C142   1.345       .  A
N139        C140   1.347       .  A
C140        C141   1.384       .  A
C140        H143   1.082       .  S
C141        C142   1.382       .  A
C141        C437   1.470       .  S
C142        H144   1.082       .  S
N145        N146   1.322       .  A
N145        C149   1.348       .  A
N145       Cu153   2.085       .  S
N146        C147   1.343       .  A
N146       Cu152   2.066       .  S
C147        C148   1.380       .  A
C147        H150   1.082       .  S
C148        C149   1.385       .  A
C149        H151   1.082       .  S
Cu152       N155   2.066       .  S
Cu153       N163   2.086       .  S
Cu154       N156   2.074       .  S
Cu154       N162   2.075       .  S
N155        N156   1.321       .  A
N155        C159   1.342       .  A
N156        C157   1.347       .  A
C157        C158   1.386       .  A
C157        H160   1.082       .  S
C158        C159   1.382       .  A
C158        C182   1.473       .  S
C159        H161   1.082       .  S
N162        N163   1.324       .  A
N162        C166   1.345       .  A
N163        C164   1.347       .  A
C164        C165   1.384       .  A
C164        H167   1.082       .  S
C165        C166   1.382       .  A
C165        C395   1.470       .  S
C166        H168   1.082       .  S
N169        N170   1.322       .  A
N169        C173   1.348       .  A
N169       Cu177   2.085       .  S
N170        C171   1.343       .  A
N170       Cu176   2.067       .  S
C171        C172   1.380       .  A
C171        H174   1.082       .  S
C172        C173   1.385       .  A
C173        H175   1.082       .  S
Cu176       N179   2.066       .  S
Cu177       N187   2.086       .  S
Cu178       N180   2.073       .  S
Cu178       N186   2.075       .  S
N179        N180   1.321       .  A
N179        C183   1.342       .  A
N180        C181   1.347       .  A
C181        C182   1.386       .  A
C181        H184   1.082       .  S
C182        C183   1.383       .  A
C183        H185   1.082       .  S
N186        N187   1.324       .  A
N186        C190   1.344       .  A
N187        C188   1.347       .  A
C188        C189   1.384       .  A
C188        H191   1.082       .  S
C189        C190   1.381       .  A
C189        C412   1.470       .  S
C190        H192   1.082       .  S
N193        N194   1.322       .  A
N193        C197   1.348       .  A
N193       Cu201   2.085       .  S
N194        C195   1.343       .  A
N194       Cu200   2.066       .  S
C195        C196   1.380       .  A
C195        H198   1.082   1_565  S
C196        C197   1.385       .  A
C196        C244   1.466       .  S
C197        H199   1.082       .  S
Cu200       N203   2.066       .  S
Cu201       N211   2.085       .  S
Cu202       N204   2.074       .  S
Cu202       N210   2.075       .  S
N203        N204   1.321       .  A
N203        C207   1.342       .  A
N204        C205   1.347       .  A
C205        C206   1.386   1_655  A
C205        H208   1.082       .  S
C206        C207   1.383   1_455  A
C206        C230   1.473       .  S
C207        H209   1.082       .  S
N210        N211   1.324       .  A
N210        C214   1.345       .  A
N211        C212   1.347       .  A
C212        C213   1.384       .  A
C212        H215   1.082       .  S
C213        C214   1.382       .  A
C213        C411   1.470       .  S
C214        H216   1.082       .  S
N217        N218   1.322       .  A
N217        C221   1.348       .  A
N217       Cu225   2.085       .  S
N218        C219   1.343       .  A
N218       Cu224   2.067       .  S
C219        C220   1.380       .  A
C219        H222   1.082   1_565  S
C220        C221   1.385       .  A
C220        C268   1.466       .  S
C221        H223   1.082       .  S
Cu224       N227   2.066       .  S
Cu225       N235   2.086       .  S
Cu226       N228   2.074       .  S
Cu226       N234   2.075       .  S
N227        N228   1.321       .  A
N227        C231   1.342       .  A
N228        C229   1.347       .  A
C229        C230   1.386       .  A
C229        H232   1.082       .  S
C230        C231   1.383       .  A
C231        H233   1.082       .  S
N234        N235   1.324       .  A
N234        C238   1.344       .  A
N235        C236   1.347       .  A
C236        C237   1.384       .  A
C236        H239   1.082       .  S
C237        C238   1.382       .  A
C237        C396   1.470       .  S
C238        H240   1.082       .  S
N241        N242   1.322   1_545  A
N241        C245   1.348   1_554  A
N241       Cu249   2.085       .  S
N242        C243   1.343   1_554  A
N242       Cu248   2.066       .  S
C243        C244   1.380       .  A
C243        H246   1.082       .  S
C244        C245   1.385   1_565  A
C245        H247   1.082       .  S
Cu248       N251   2.066   1_565  S
Cu249       N259   2.086       .  S
Cu250       N252   2.073       .  S
Cu250       N258   2.075       .  S
N251        N252   1.321       .  A
N251        C255   1.342       .  A
N252        C253   1.347       .  A
C253        C254   1.386   1_655  A
C253        H256   1.082       .  S
C254        C255   1.383   1_455  A
C254        C278   1.473       .  S
C255        H257   1.082   1_545  S
N258        N259   1.324       .  A
N258        C262   1.344       .  A
N259        C260   1.347       .  A
C260        C261   1.384       .  A
C260        H263   1.082       .  S
C261        C262   1.381       .  A
C261        C438   1.470       .  S
C262        H264   1.082       .  S
N265        N266   1.322   1_545  A
N265        C269   1.348   1_554  A
N265       Cu273   2.085       .  S
N266        C267   1.343   1_554  A
N266       Cu272   2.066       .  S
C267        C268   1.380       .  A
C267        H270   1.082       .  S
C268        C269   1.385   1_565  A
C269        H271   1.082       .  S
Cu272       N275   2.066   1_565  S
Cu273       N283   2.086       .  S
Cu274       N276   2.074       .  S
Cu274       N282   2.075       .  S
N275        N276   1.321       .  A
N275        C279   1.342       .  A
N276        C277   1.347       .  A
C277        C278   1.386       .  A
C277        H280   1.082       .  S
C278        C279   1.382       .  A
C279        H281   1.082   1_545  S
N282        N283   1.324       .  A
N282        C286   1.344       .  A
N283        C284   1.347       .  A
C284        C285   1.384       .  A
C284        H287   1.082       .  S
C285        C286   1.382       .  A
C285        C426   1.470       .  S
C286        H288   1.082       .  S
N289        N290   1.322       .  A
N289        C293   1.348       .  A
N289       Cu297   2.085       .  S
N290        C291   1.343       .  A
N290       Cu296   2.066       .  S
C291        C292   1.380       .  A
C291        H294   1.082       .  S
C292        C293   1.385       .  A
C292        C340   1.466       .  S
C293        H295   1.082       .  S
Cu296       N299   2.066       .  S
Cu297       N307   2.086       .  S
Cu298       N300   2.073       .  S
Cu298       N306   2.074       .  S
N299        N300   1.321       .  A
N299        C303   1.342       .  A
N300        C301   1.347       .  A
C301        C302   1.386   1_655  A
C301        H304   1.082       .  S
C302        C303   1.383   1_455  A
C302        C326   1.472       .  S
C303        H305   1.082       .  S
N306        N307   1.324       .  A
N306        C310   1.344       .  A
N307        C308   1.347       .  A
C308        C309   1.384       .  A
C308        H311   1.082       .  S
C309        C310   1.381       .  A
C309        C410   1.470       .  S
C310        H312   1.082       .  S
N313        N314   1.322       .  A
N313        C317   1.348       .  A
N313       Cu321   2.086       .  S
N314        C315   1.343       .  A
N314       Cu320   2.066       .  S
C315        C316   1.380       .  A
C315        H318   1.082       .  S
C316        C317   1.385       .  A
C316        C364   1.466       .  S
C317        H319   1.082       .  S
Cu320       N323   2.066       .  S
Cu321       N331   2.086       .  S
Cu322       N324   2.073       .  S
Cu322       N330   2.074       .  S
N323        N324   1.321       .  A
N323        C327   1.342       .  A
N324        C325   1.347       .  A
C325        C326   1.386       .  A
C325        H328   1.082       .  S
C326        C327   1.383       .  A
C327        H329   1.082       .  S
N330        N331   1.324       .  A
N330        C334   1.344       .  A
N331        C332   1.347       .  A
C332        C333   1.384       .  A
C332        H335   1.082       .  S
C333        C334   1.381       .  A
C333        C397   1.470       .  S
C334        H336   1.082       .  S
N337        N338   1.322       .  A
N337        C341   1.348   1_554  A
N337       Cu345   2.085       .  S
N338        C339   1.343   1_554  A
N338       Cu344   2.066       .  S
C339        C340   1.380       .  A
C339        H342   1.082       .  S
C340        C341   1.385       .  A
C341        H343   1.082       .  S
Cu344       N347   2.065       .  S
Cu345       N355   2.086       .  S
Cu346       N348   2.073       .  S
Cu346       N354   2.074       .  S
N347        N348   1.321       .  A
N347        C351   1.342       .  A
N348        C349   1.347       .  A
C349        C350   1.386   1_655  A
C349        H352   1.082       .  S
C350        C351   1.383   1_455  A
C350        C374   1.472       .  S
C351        H353   1.082       .  S
N354        N355   1.324       .  A
N354        C358   1.344       .  A
N355        C356   1.347       .  A
C356        C357   1.384       .  A
C356        H359   1.082       .  S
C357        C358   1.381       .  A
C357        C439   1.470       .  S
C358        H360   1.082       .  S
N361        N362   1.322       .  A
N361        C365   1.348   1_554  A
N361       Cu369   2.085       .  S
N362        C363   1.343   1_554  A
N362       Cu368   2.066       .  S
C363        C364   1.380       .  A
C363        H366   1.082       .  S
C364        C365   1.385       .  A
C365        H367   1.082       .  S
Cu368       N371   2.066       .  S
Cu369       N379   2.086       .  S
Cu370       N372   2.073       .  S
Cu370       N378   2.074       .  S
N371        N372   1.321       .  A
N371        C375   1.342       .  A
N372        C373   1.347       .  A
C373        C374   1.386       .  A
C373        H376   1.082       .  S
C374        C375   1.383       .  A
C375        H377   1.082       .  S
N378        N379   1.324       .  A
N378        C382   1.344       .  A
N379        C380   1.347       .  A
C380        C381   1.384       .  A
C380        H383   1.082       .  S
C381        C382   1.381       .  A
C381        C423   1.470       .  S
C382        H384   1.082       .  S
O385       Cu393   2.010       .  S
O385        C395   1.278       .  A
O386       Cu393   2.015       .  S
O386        C396   1.278       .  A
O387       Cu393   2.015       .  S
O387        C397   1.278       .  A
O388       Cu393   2.009       .  S
O388        C398   1.278       .  A
O389       Cu394   2.014       .  S
O389        C398   1.278       .  A
O390       Cu394   2.009       .  S
O390        C397   1.278       .  A
O391       Cu394   2.009       .  S
O391        C396   1.278       .  A
O392       Cu394   2.014       .  S
O392        C395   1.278       .  A
Cu393      Cu394   2.376       .  S
O399       Cu407   2.009       .  S
O399        C409   1.278       .  A
O400       Cu407   2.014       .  S
O400        C410   1.278       .  A
O401       Cu407   2.014       .  S
O401        C411   1.278       .  A
O402       Cu407   2.009       .  S
O402        C412   1.278       .  A
O403       Cu408   2.015       .  S
O403        C412   1.278       .  A
O404       Cu408   2.010       .  S
O404        C411   1.278       .  A
O405       Cu408   2.009       .  S
O405        C410   1.278       .  A
O406       Cu408   2.015       .  S
O406        C409   1.278       .  A
Cu407      Cu408   2.376       .  S
O413       Cu421   2.010       .  S
O413        C423   1.278       .  A
O414       Cu421   2.015       .  S
O414        C424   1.278       .  A
O415       Cu421   2.014       .  S
O415        C425   1.278       .  A
O416       Cu421   2.010       .  S
O416        C426   1.278       .  A
O417       Cu422   2.014       .  S
O417        C426   1.278       .  A
O418       Cu422   2.009       .  S
O418        C425   1.278       .  A
O419       Cu422   2.008       .  S
O419        C424   1.278       .  A
O420       Cu422   2.014       .  S
O420        C423   1.278       .  A
Cu421      Cu422   2.376       .  S
O427       Cu435   2.014       .  S
O427        C437   1.278       .  A
O428       Cu435   2.009       .  S
O428        C438   1.278       .  A
O429       Cu435   2.008       .  S
O429        C439   1.278       .  A
O430       Cu435   2.014       .  S
O430        C440   1.278       .  A
O431       Cu436   2.009       .  S
O431        C440   1.278       .  A
O432       Cu436   2.015       .  S
O432        C439   1.278       .  A
O433       Cu436   2.015       .  S
O433        C438   1.278       .  A
O434       Cu436   2.010       .  S
O434        C437   1.278       .  A
Cu435      Cu436   2.376       .  S
