geometry optimzed in LAMMPS
_audit_creation_date              2020-12-01 
_audit_creation_method            'lammps2cif' 
_symmetry_space_group_name_H-M    'P1' 
_symmetry_Int_Tables_number       1 
_symmetry_cell_setting            triclinic 
loop_ 
_symmetry_equiv_pos_as_xyz 
  x,y,z 
_cell_length_a                    37.57458138 
_cell_length_b                    37.2338342000702 
_cell_length_c                    52.655426722043636 
_cell_angle_alpha                 90.73366583945469 
_cell_angle_beta                  90.54420166489928 
_cell_angle_gamma                 88.75686570411064 
loop_ 
_atom_site_label 
_atom_site_type_symbol 
_atom_site_fract_x 
_atom_site_fract_y 
_atom_site_fract_z 
_atom_site_charge 
O1          O  0.47243889  0.45384971  0.47205810    -0.74900
O2          O  0.46211418  0.01942028  0.52546552    -0.74900
O3          O  0.45852092  0.02146626  0.47348157    -0.75000
O4          O  0.47507004  0.45343127  0.52383208    -0.75000
O5          O  0.03239129  0.47603734  0.52377153    -0.75000
O6          O  0.02162087  0.04888421  0.47660934    -0.74900
O7          O  0.02260007  0.04813496  0.52811378    -0.74900
O8          O  0.02956743  0.47671018  0.47169244    -0.75000
Ni9        Ni  0.46704380  0.48934419  0.49843920     1.25400
Ni10       Ni  0.03146993  0.01333528  0.50191793     1.25400
C11         C  0.00075399  0.46360907  0.46261812     0.87300
C12         C  0.48998518  0.03520909  0.53379814     0.87200
C13         C  0.99000966  0.05486055  0.46806723     0.87200
C14         C  0.50635014  0.44634462  0.53257782     0.87400
C15         C  0.99634310  0.01275514  0.75349042    -0.03000
C16         C  0.00385960  0.50943241  0.24731799    -0.03000
C17         C  0.00121490  0.33648396  0.34040506     0.79800
N18         N  0.00300167  0.35707988  0.31913750    -0.78600
C19         C  0.00516144  0.39358034  0.32156656     0.82200
N20         N  0.00541753  0.40901685  0.34509366    -0.78500
C21         C  0.00316488  0.38874921  0.36610631     0.82300
N22         N  0.00096686  0.35275107  0.36365899    -0.80200
O23         O  0.03480650  0.46901529  0.97773127    -0.74900
O24         O  0.47079754  0.44711284  0.02574344    -0.74900
O25         O  0.47257854  0.44793552  0.97397088    -0.75000
O26         O  0.03328783  0.47690068  0.02933821    -0.75000
O27         O  0.03524200  0.03580822  0.02923125    -0.75000
O28         O  0.46367305  0.01439724  0.97642818    -0.74900
O29         O  0.46276460  0.01402942  0.02817396    -0.74900
O30         O  0.03856345  0.03252542  0.97720014    -0.75000
Ni31       Ni  0.99824386  0.47173617  0.00282211     1.25400
Ni32       Ni  0.00113992  0.03416407  0.00210129     1.25400
C33         C  0.04663874  0.49715934  0.96722786     0.87300
C34         C  0.45595722  0.47578284  0.03466199     0.87200
C35         C  0.45874022  0.47697890  0.96504062     0.87200
C36         C  0.04383889  0.50782404  0.03677655     0.87400
C37         C  0.32715252  0.49895011  0.15329227     0.79800
N38         N  0.35002077  0.49951709  0.17354536    -0.78600
C39         C  0.38536141  0.49274073  0.17004157     0.82200
N40         N  0.39727517  0.48509044  0.14627556    -0.78500
C41         C  0.37486915  0.48479285  0.12605738     0.82300
N42         N  0.33983409  0.49204136  0.12958158    -0.80200
C43         C  0.99453555  0.18146659  0.34699070     0.79800
N44         N  0.99144518  0.15832335  0.32673709    -0.78600
C45         C  0.98575823  0.12269761  0.33059555     0.82200
N46         N  0.98339267  0.11093648  0.35473517    -0.78500
C47         C  0.98621448  0.13341940  0.37493859     0.82300
N48         N  0.99180438  0.16867100  0.37100547    -0.80200
C49         C  0.17352343  0.02400285  0.16102695     0.79800
N50         N  0.15673168  0.02286317  0.13801777    -0.78600
C51         C  0.12081762  0.02064011  0.13638125     0.82200
N52         N  0.10175917  0.01894550  0.15803933    -0.78500
C53         C  0.11807691  0.01988109  0.18117164     0.82300
N54         N  0.15409134  0.02188547  0.18263939    -0.80200
C55         C  0.32569640  0.00996099  0.84596808     0.79800
N56         N  0.34737515  0.00810887  0.82524509    -0.78600
C57         C  0.38316400  0.00234760  0.82838582     0.82200
N58         N  0.39685927  0.99803021  0.85207703    -0.78500
C59         C  0.37562702  0.99950272  0.87269482     0.82300
N60         N  0.34013175  0.00554848  0.86958133    -0.80200
C61         C  0.00362824  0.33955261  0.65627286     0.79800
N62         N  0.00300488  0.36202356  0.67691049    -0.78600
C63         C  0.00410551  0.39822752  0.67379580     0.82200
N64         N  0.00576646  0.41184418  0.65010239    -0.78500
C65         C  0.00663606  0.38988321  0.62941032     0.82300
N66         N  0.00535808  0.35379907  0.63257522    -0.80200
C67         C  0.00271694  0.18353352  0.65798211     0.79800
N68         N  0.00318305  0.16268621  0.67921013    -0.78600
C69         C  0.00165892  0.12618281  0.67669275     0.82200
N70         N  0.99874223  0.11111226  0.65327573    -0.78500
C71         C  0.99740896  0.13145935  0.63218178     0.82300
N72         N  0.99954168  0.16762528  0.63467177    -0.80200
C73         C  0.17186815  0.49983502  0.84603650     0.79800
N74         N  0.14898963  0.49975124  0.82566554    -0.78600
C75         C  0.11334584  0.49566538  0.82925418     0.82200
N76         N  0.10091993  0.49219022  0.85312550    -0.78500
C77         C  0.12318803  0.49264210  0.87346492     0.82300
N78         N  0.15855920  0.49687349  0.86989642    -0.80200
C79         C  0.02362034  0.27951455  0.64076663    -0.26800
C80         C  0.00475649  0.29972284  0.65903878    -0.14900
C81         C  0.49973773  0.26311172  0.67783876     0.35800
C82         C  0.49975578  0.22525903  0.67693281    -0.26200
C83         C  0.00568511  0.22332712  0.65957636    -0.15500
C84         C  0.02442134  0.24194694  0.64092227     0.36900
N85         N  0.04479463  0.22285191  0.62208195    -0.89700
H86         H  0.03802787  0.29296168  0.62603580     0.18000
H87         H  0.48903659  0.21096555  0.69283853     0.18000
N88         N  0.48565175  0.28070068  0.70000601    -0.88800
H89         H  0.07125527  0.23074863  0.62376320     0.35300
H90         H  0.03531730  0.23072314  0.60421921     0.40400
H91         H  0.46450409  0.29768802  0.69454539     0.40100
H92         H  0.50568522  0.29587399  0.70850875     0.34900
C93         C  0.26828469  0.48329290  0.82497017    -0.26800
C94         C  0.28635129  0.01461822  0.84313123    -0.14900
C95         C  0.26613940  0.03648375  0.86014711     0.35800
C96         C  0.22893824  0.03605705  0.85919342    -0.26200
C97         C  0.21118412  0.50281934  0.84303980    -0.15500
C98         C  0.23079571  0.48361707  0.82420340     0.36900
N99         N  0.21357465  0.46270945  0.80487282    -0.89700
H100        H  0.28282725  0.46747976  0.81092711     0.18000
H101        H  0.21409286  0.05214940  0.87293357     0.18000
N102        N  0.28246947  0.05965244  0.87857443    -0.88800
H103        H  0.19767067  0.47987948  0.79380774     0.35300
H104        H  0.19737247  0.44410202  0.81359070     0.40400
H105        H  0.30057500  0.07583683  0.86935441     0.40100
H106        H  0.29591951  0.04407528  0.89207021     0.34900
C107        C  0.26962220  0.03520209  0.14224747    -0.26800
C108        C  0.28883745  0.50716958  0.15633328    -0.14900
C109        C  0.26911898  0.49387926  0.17671096     0.35800
C110        C  0.23196673  0.49943899  0.17695361    -0.26200
C111        C  0.21428884  0.51770959  0.15714743    -0.15500
C112        C  0.23262654  0.04075471  0.14300310     0.36900
N113        N  0.21502563  0.06280504  0.12427382    -0.89700
H114        H  0.28457849  0.04683181  0.12701484     0.18000
H115        H  0.21662419  0.48791545  0.19201662     0.18000
N116        N  0.28654906  0.47354034  0.19643584    -0.88800
H117        H  0.23338633  0.07274765  0.11147707     0.35300
H118        H  0.20383579  0.08509430  0.13376424     0.40400
H119        H  0.29671239  0.44981191  0.18819757     0.40100
H120        H  0.26821733  0.46592423  0.21006852     0.34900
C121        C  0.40568692  0.01372028  0.94103300    -0.26800
C122        C  0.43488868  0.47592474  0.94241489    -0.14900
C123        C  0.44064390  0.45097268  0.92230616     0.35800
C124        C  0.42109778  0.45476637  0.89953987    -0.26200
C125        C  0.39156501  0.99357576  0.89808447    -0.15500
C126        C  0.38638622  0.01819729  0.91825637     0.36900
N127        N  0.36314463  0.04885107  0.91519460    -0.89700
H128        H  0.40246567  0.03364548  0.95606751     0.18000
H129        H  0.42612838  0.43626396  0.88385935     0.18000
N130        N  0.46766715  0.42320087  0.92441337    -0.88800
H131        H  0.37809482  0.07195153  0.91799412     0.35300
H132        H  0.34394581  0.04832262  0.92941966     0.40400
H133        H  0.45889729  0.40472347  0.93762796     0.40100
H134        H  0.47032546  0.40901911  0.90724395     0.34900
C135        C  0.40204932  0.01002291  0.06167132    -0.26800
C136        C  0.43031724  0.47368344  0.05576582    -0.14900
C137        C  0.43348586  0.44664687  0.07436995     0.35800
C138        C  0.41345787  0.44999012  0.09668510    -0.26200
C139        C  0.38965974  0.47899601  0.10049268    -0.15500
C140        C  0.38149354  0.01219542  0.08376410     0.36900
N141        N  0.35615409  0.04126766  0.08633759    -0.89700
H142        H  0.39821071  0.03024661  0.04722326     0.18000
H143        H  0.41722450  0.43043371  0.11160177     0.18000
N144        N  0.45852752  0.41716920  0.07140190    -0.88800
H145        H  0.36254831  0.05624638  0.10261413     0.35300
H146        H  0.33092068  0.03053465  0.08855706     0.40400
H147        H  0.44904762  0.40073485  0.05669759     0.40100
H148        H  0.45926404  0.40128362  0.08763976     0.34900
C149        C  0.06377009  0.46618167  0.92731240    -0.26800
C150        C  0.07091014  0.49305462  0.94542573    -0.14900
C151        C  0.09783123  0.02993481  0.94037389     0.35800
C152        C  0.11533050  0.02902256  0.91681061    -0.26200
C153        C  0.10819157  0.48991916  0.89918343    -0.15500
C154        C  0.08208147  0.46437597  0.90424380     0.36900
N155        N  0.07385522  0.43704914  0.88571722    -0.89700
H156        H  0.04262824  0.44751266  0.93065426     0.18000
H157        H  0.13133816  0.05145607  0.91131919     0.18000
N158        N  0.10199574  0.05987895  0.95754692    -0.88800
H159        H  0.07041178  0.92127617  0.89760496     0.35300
H160        H  0.09658241  0.42065119  0.88350676     0.40400
H161        H  0.11449212  0.05019874  0.97399474     0.40100
H162        H  0.12825942  0.55948878  0.95392751     0.34900
C163        C  0.05646701  0.53716439  0.07806639    -0.26800
C164        C  0.06634336  0.51106691  0.05983128    -0.14900
C165        C  0.10188831  0.99477042  0.06762514     0.35800
C166        C  0.11908187  0.99906636  0.09121826    -0.26200
C167        C  0.10394709  0.51669386  0.10635359    -0.15500
C168        C  0.07466334  0.53992816  0.10139788     0.36900
N169        N  0.06346202  0.56613450  0.12013006    -0.89700
H170        H  0.03366159  0.55474333  0.07441956     0.18000
H171        H  0.14507554  0.98651705  0.09409118     0.18000
N172        N  0.11963715  0.97457664  0.04798636    -0.88800
H173        H  0.04128513  0.58089573  0.11362429     0.35300
H174        H  0.08405782  0.58434034  0.12254521     0.40400
H175        H  0.12191833  0.99103277  0.03216683     0.40100
H176        H  0.08751572  0.44268303  0.04411157     0.34900
C177        C  0.01793294  0.27863066  0.36020824    -0.26800
C178        C  0.00222901  0.29647293  0.33944925    -0.14900
C179        C  0.48974907  0.25920285  0.31823990     0.35800
C180        C  0.48855831  0.22137536  0.31956735    -0.26200
C181        C  0.00010640  0.22056576  0.34338353    -0.15500
C182        C  0.01726920  0.24124606  0.36237779     0.36900
N183        N  0.03397793  0.22432082  0.38395511    -0.89700
H184        H  0.03078858  0.29405221  0.37513632     0.18000
H185        H  0.47350117  0.20656632  0.30542412     0.18000
N186        N  0.47192009  0.27785365  0.29788043    -0.88800
H187        H  0.04473389  0.24339084  0.39641432     0.35300
H188        H  0.05532864  0.20853958  0.37724978     0.40400
H189        H  0.45084104  0.29291462  0.30571993     0.40100
H190        H  0.46061861  0.25959652  0.28506368     0.34900
C191        C  0.03193309  0.47179601  0.28193286    -0.26800
C192        C  0.00504312  0.47361353  0.26294763    -0.14900
C193        C  0.47981046  0.42491832  0.26128650     0.35800
C194        C  0.48268716  0.39803591  0.27997654    -0.26200
C195        C  0.00843188  0.41734523  0.29936344    -0.15500
C196        C  0.03351748  0.44471143  0.29998044     0.36300
N197        N  0.06047784  0.44559113  0.31937916    -0.89700
H198        H  0.05095097  0.49316276  0.28376025     0.18000
H199        H  0.46444251  0.37588585  0.27940983     0.18000
N200        N  0.45473476  0.42007609  0.24100332    -0.88800
H201        H  0.05782402  0.47002484  0.32927138     0.35300
H202        H  0.08530980  0.44495871  0.31057338     0.40400
H203        H  0.42948879  0.41765332  0.24891962     0.40100
H204        H  0.46096985  0.39581379  0.23169022     0.34900
C205        C  0.44550135  0.01028651  0.18630454    -0.26800
C206        C  0.41210169  0.49654040  0.19083218    -0.14900
C207        C  0.40518820  0.49129095  0.21680719     0.35800
C208        C  0.43388171  0.49109385  0.23440580    -0.26200
C209        C  0.46957096  0.49487827  0.22664014    -0.15500
C210        C  0.47442246  0.00989641  0.20299752     0.36900
N211        N  0.50684562  0.02447102  0.19387439    -0.89700
H212        H  0.44990175  0.01914456  0.16706875     0.18000
H213        H  0.42847291  0.48605756  0.25416091     0.18000
N214        N  0.36961574  0.48503098  0.22520147    -0.88800
H215        H  0.51462652  0.00984103  0.17768877     0.35300
H216        H  0.00072644  0.06791040  0.19226045     0.40400
H217        H  0.35490906  0.50892513  0.22282038     0.40100
H218        H  0.37189366  0.97671935  0.24722633     0.34900
C219        C  0.99696194  0.10482597  0.28496732    -0.26800
C220        C  0.98453155  0.09592649  0.30915381    -0.14900
C221        C  0.47671875  0.04223782  0.31025024     0.35800
C222        C  0.48087900  0.01665033  0.29102852    -0.26200
C223        C  0.99433138  0.04186857  0.27040313    -0.15500
C224        C  0.00047167  0.07868965  0.26537067     0.36900
N225        N  0.00978144  0.09013175  0.24053596    -0.89700
H226        H  0.00441707  0.13217217  0.28118528     0.18000
H227        H  0.47134713  0.99017691  0.29515191     0.18000
N228        N  0.46113276  0.03018713  0.33330587    -0.88800
H229        H  0.03345666  0.10431763  0.24188414     0.35300
H230        H  0.98988875  0.10805569  0.23425135     0.40400
H231        H  0.43905714  0.04656105  0.33775832     0.40100
H232        H  0.48006847  0.03030979  0.34795508     0.34900
C233        C  0.07284259  0.48133396  0.19676605    -0.26800
C234        C  0.09634431  0.01390314  0.20386246    -0.14900
C235        C  0.09314615  0.03830356  0.22463872     0.35800
C236        C  0.06526297  0.03419315  0.24201429    -0.26200
C237        C  0.04000598  0.50647193  0.23296196    -0.15500
C238        C  0.04461174  0.47963419  0.21365172     0.36900
N239        N  0.01878379  0.45247748  0.20947341    -0.89700
H240        H  0.07404019  0.46242677  0.18093700     0.18000
H241        H  0.06381623  0.05237855  0.25810861     0.18000
N242        N  0.11572200  0.06872448  0.22788196    -0.88800
H243        H  0.03172911  0.42741240  0.21072942     0.35300
H244        H  0.50683521  0.43400621  0.19080861     0.40400
H245        H  0.13438120  0.07016554  0.21344301     0.40100
H246        H  0.12999928  0.06530519  0.24484722     0.34900
C247        C  0.43864409  0.97491259  0.77073316    -0.26800
C248        C  0.46530173  0.00139163  0.77089612    -0.14900
C249        C  0.45857787  0.52583611  0.78742213     0.35800
C250        C  0.43142458  0.52375939  0.80543684    -0.26200
C251        C  0.40835790  0.00283549  0.80689922    -0.15500
C252        C  0.40988678  0.97596609  0.78772194     0.36900
N253        N  0.38402100  0.94814336  0.78558998    -0.89700
H254        H  0.43994122  0.95234177  0.75773060     0.18000
H255        H  0.42983891  0.54397506  0.82041766     0.18000
N256        N  0.48299319  0.55474713  0.78967025    -0.88800
H257        H  0.37113344  0.95101340  0.76802221     0.35300
H258        H  0.36440482  0.95079435  0.79939744     0.40400
H259        H  0.97284416  0.58974138  0.79568283     0.40100
H260        H  0.49583703  0.55280152  0.80732035     0.34900
C261        C  0.03251597  0.47858918  0.78730660    -0.26800
C262        C  0.03057129  0.50938261  0.77179469    -0.14900
C263        C  0.05585632  0.03837652  0.77544084     0.35800
C264        C  0.08411840  0.03346069  0.79290630    -0.26200
C265        C  0.08713407  0.49801713  0.80804290    -0.15500
C266        C  0.06004703  0.47261604  0.80489417     0.36900
N267        N  0.05982366  0.44013852  0.81915435    -0.89700
H268        H  0.01225804  0.45841747  0.78544970     0.18000
H269        H  0.10332061  0.05457839  0.79535474     0.18000
N270        N  0.05309742  0.07233654  0.76307263    -0.88800
H271        H  0.05603983  0.44667996  0.83825420     0.35300
H272        H  0.08445341  0.42687370  0.81707080     0.40400
H273        H  0.07646368  0.07599569  0.75287344     0.40100
H274        H  0.05129323  0.09259883  0.77696471     0.34900
C275        C  0.02692873  0.45491172  0.73196015    -0.26800
C276        C  0.99767157  0.47987478  0.73320670    -0.14900
C277        C  0.46886619  0.45811512  0.71197324     0.35800
C278        C  0.47296101  0.42956332  0.69449670    -0.26200
C279        C  0.00186336  0.42350062  0.69554798    -0.15500
C280        C  0.02895661  0.42672403  0.71403939     0.36900
N281        N  0.05975950  0.40306567  0.71472422    -0.89700
H282        H  0.05004166  0.45759737  0.74403097     0.18000
H283        H  0.45244582  0.42569274  0.68014492     0.18000
N284        N  0.43697636  0.47974967  0.70901438    -0.88800
H285        H  0.08207560  0.41841695  0.71107980     0.35300
H286        H  0.05890149  0.38328551  0.70055935     0.40400
H287        H  0.43464293  0.49948271  0.72286467     0.40100
H288        H  0.41523646  0.46312070  0.71150040     0.34900
C289        C  0.97561857  0.10300649  0.71639619    -0.26800
C290        C  0.00299554  0.10180838  0.69866001    -0.14900
C291        C  0.53084587  0.05684290  0.69687007     0.35800
C292        C  0.52753150  0.03099257  0.71572274    -0.26200
C293        C  0.99711322  0.04615460  0.73546673    -0.15500
C294        C  0.97152767  0.07532176  0.73412240     0.36900
N295        N  0.93986712  0.07646257  0.74900695    -0.89700
H296        H  0.95556288  0.12431902  0.71529152     0.18000
H297        H  0.54720555  0.00931412  0.71626858     0.18000
N298        N  0.55930125  0.05364204  0.67901283    -0.88800
H299        H  0.91789939  0.07610496  0.73667047     0.35300
H300        H  0.93882522  0.10095834  0.75892665     0.40400
H301        H  0.55722703  0.02889641  0.66955849     0.40100
H302        H  0.58334780  0.05346471  0.68917450     0.34900
C303        C  0.03323083  0.43972100  0.42479090    -0.26800
C304        C  0.00213431  0.44032542  0.43947929    -0.14900
C305        C  0.47677270  0.39977424  0.43185808     0.35800
C306        C  0.47828688  0.38214653  0.40804064    -0.26200
C307        C  0.00371069  0.40557554  0.39150195    -0.15500
C308        C  0.03426965  0.42259370  0.40104148     0.36900
N309        N  0.06681699  0.42255881  0.38711414    -0.89700
H310        H  0.05668713  0.45361629  0.43137215     0.18000
H311        H  0.45632382  0.36578646  0.40170620     0.18000
N312        N  0.44652984  0.39533690  0.44794976    -0.88800
H313        H  0.06211803  0.43557511  0.36994347     0.35300
H314        H  0.07447169  0.39590574  0.38321104     0.40400
H315        H  0.45554478  0.38231345  0.46434770     0.40100
H316        H  0.42802493  0.37845285  0.43926350     0.34900
C317        C  0.49156867  0.37629245  0.58309407    -0.26800
C318        C  0.00912904  0.40553618  0.60375730    -0.14900
C319        C  0.03169820  0.43460144  0.59931329     0.35800
C320        C  0.03121467  0.45097072  0.57543350    -0.26200
C321        C  0.51071544  0.42379830  0.55533506    -0.15500
C322        C  0.48967126  0.39352834  0.55943765     0.36900
N323        N  0.46622377  0.38076712  0.53974239    -0.89700
H324        H  0.47481026  0.35358455  0.58657655     0.18000
H325        H  0.04770305  0.47402639  0.57239100     0.18000
N326        N  0.05472140  0.44770025  0.61918231    -0.88800
H327        H  0.45255558  0.35832751  0.54583454     0.35300
H328        H  0.48199565  0.37211675  0.52449829     0.40400
H329        H  0.06924007  0.46949139  0.61293970     0.40100
H330        H  0.07323562  0.42721507  0.62338633     0.34900
C331        C  0.45612424  0.07528255  0.40054267    -0.26800
C332        C  0.98374400  0.11863732  0.40075263    -0.14900
C333        C  0.00881727  0.12654800  0.41993611     0.35800
C334        C  0.00917396  0.10687294  0.44253042    -0.26200
C335        C  0.98454246  0.07963276  0.44646518    -0.15500
C336        C  0.45511857  0.05529109  0.42293347     0.36900
N337        N  0.43101341  0.02597968  0.42480503    -0.89700
H338        H  0.43825943  0.06864546  0.38498745     0.18000
H339        H  0.02968358  0.11201915  0.45664245     0.18000
N340        N  0.03529526  0.15291512  0.41595852    -0.88800
H341        H  0.41678920  0.02251754  0.40781591     0.35300
H342        H  0.41219288  0.03312528  0.43856585     0.40400
H343        H  0.06035311  0.14034819  0.41758553     0.40100
H344        H  0.03307843  0.17226956  0.43045131     0.34900
C345        C  0.00266231  0.10915287  0.56135826    -0.26800
C346        C  0.48839248  0.05825330  0.55682865    -0.14900
C347        C  0.46888732  0.04811973  0.57820390     0.35800
C348        C  0.47280100  0.06708333  0.60121556    -0.26200
C349        C  0.99319968  0.11364850  0.60699003    -0.15500
C350        C  0.00538824  0.12880881  0.58422801     0.36900
N351        N  0.02205997  0.16313398  0.58447299    -0.89700
H352        H  0.01313474  0.12002585  0.54402388     0.18000
H353        H  0.45813770  0.05857385  0.61763387     0.18000
N354        N  0.44657565  0.01741268  0.57704391    -0.88800
H355        H  0.02837402  0.17079579  0.56604637     0.35300
H356        H  0.04624950  0.16005607  0.59426035     0.40400
H357        H  0.42082396  0.02571834  0.58211883     0.40100
H358        H  0.45586969  0.99898117  0.59051875     0.34900
O359        O  0.47146670  0.94997452  0.47116414    -0.74900
O360        O  0.46570799  0.52531938  0.52474921    -0.74900
O361        O  0.46334137  0.52573372  0.47300142    -0.75000
O362        O  0.47470182  0.94826906  0.52298439    -0.75000
O363        O  0.03688619  0.97726582  0.52747294    -0.75000
O364        O  0.02186239  0.54874004  0.47316056    -0.74900
O365        O  0.02463167  0.54767198  0.52485686    -0.74900
O366        O  0.03638313  0.97764566  0.47563304    -0.75000
Ni367      Ni  0.46458224  0.98443839  0.49827077     1.25400
Ni368      Ni  0.02922355  0.51242983  0.49828902     1.25400
C369        C  0.00951232  0.96132040  0.46626650     0.87300
C370        C  0.49393910  0.53999379  0.53338099     0.87200
C371        C  0.99066937  0.55757932  0.46503763     0.87200
C372        C  0.50621682  0.94314590  0.53186150     0.87400
C373        C  0.99774459  0.51251111  0.75289416    -0.03000
C374        C  0.00185874  0.00953394  0.25144895    -0.03000
C375        C  0.01352819  0.83584323  0.34305414     0.79800
N376        N  0.01195476  0.85825571  0.32275662    -0.78600
C377        C  0.01433568  0.89442125  0.32646896     0.82200
N378        N  0.01768210  0.90784733  0.35046580    -0.78500
C379        C  0.01893044  0.88577904  0.37069798     0.82300
N380        N  0.01673093  0.84986798  0.36692376    -0.80200
O381        O  0.04341847  0.97282134  0.97892266    -0.74900
O382        O  0.46489159  0.95415656  0.02726272    -0.74900
O383        O  0.46628288  0.95458221  0.97550046    -0.75000
O384        O  0.04051850  0.97605579  0.03064139    -0.75000
O385        O  0.03309044  0.53649531  0.02562104    -0.75000
O386        O  0.46632875  0.50756293  0.97482781    -0.74900
O387        O  0.46416093  0.50669575  0.02632000    -0.74900
O388        O  0.03574685  0.52861346  0.97411332    -0.75000
Ni389      Ni  0.00665061  0.97015835  0.00329706     1.25400
Ni390      Ni  0.99865473  0.53550997  0.99861210     1.25400
C391        C  0.05218850  0.00258091  0.96918522     0.87300
C392        C  0.45265312  0.98373998  0.03661014     0.87200
C393        C  0.45406233  0.98439406  0.96669286     0.87200
C394        C  0.04782274  0.00726811  0.03957845     0.87400
C395        C  0.32583908  0.00623119  0.15704861     0.79800
N396        N  0.34905447  0.00523724  0.17714631    -0.78600
C397        C  0.38418327  0.99773094  0.17318753     0.82200
N398        N  0.39550727  0.99099152  0.14917004    -0.78500
C399        C  0.37290632  0.99232267  0.12909017     0.82300
N400        N  0.33804901  0.00023061  0.13305573    -0.80200
C401        C  0.00172764  0.68190895  0.34295435     0.79800
N402        N  0.99803218  0.65894772  0.32265692    -0.78600
C403        C  0.99149143  0.62347734  0.32655522     0.82200
N404        N  0.98865541  0.61187003  0.35071776    -0.78500
C405        C  0.99205387  0.63429731  0.37090533     0.82300
N406        N  0.99882534  0.66930756  0.36698015    -0.80200
C407        C  0.17489512  0.51824150  0.15595411     0.79800
N408        N  0.15810248  0.51815672  0.13294010    -0.78600
C409        C  0.12215312  0.51725351  0.13132456     0.82200
N410        N  0.10295335  0.51542307  0.15287689    -0.78500
C411        C  0.11929346  0.51485996  0.17600197     0.82300
N412        N  0.15535124  0.51616741  0.17753892    -0.80200
C413        C  0.32659307  0.49695206  0.84618098     0.79800
N414        N  0.34730012  0.49716561  0.82497155    -0.78600
C415        C  0.38337624  0.49275736  0.82712382     0.82200
N416        N  0.39845080  0.48778358  0.85034711    -0.78500
C417        C  0.37818394  0.48720703  0.87145622     0.82300
N418        N  0.34236011  0.49194325  0.86929778    -0.80200
C419        C  0.01095903  0.83805529  0.65830941     0.79800
N420        N  0.00855455  0.86030704  0.67904573    -0.78600
C421        C  0.00795575  0.89665233  0.67607825     0.82200
N422        N  0.00996206  0.91058490  0.65249776    -0.78500
C423        C  0.01252348  0.88876492  0.63182570     0.82300
N424        N  0.01265063  0.85272470  0.63481381    -0.80200
C425        C  0.00927456  0.68179280  0.65716888     0.79800
N426        N  0.00913874  0.66105230  0.67837629    -0.78600
C427        C  0.00700454  0.62463776  0.67598996     0.82200
N428        N  0.00422926  0.60928282  0.65258392    -0.78500
C429        C  0.00373238  0.62965666  0.63145997     0.82300
N430        N  0.00624333  0.66576789  0.63391615    -0.80200
C431        C  0.17174773  0.00994756  0.84528131     0.79800
N432        N  0.14835273  0.00804250  0.82529611    -0.78600
C433        C  0.11302135  0.00297618  0.82956545     0.82200
N434        N  0.10140405  0.00029864  0.85374095    -0.78500
C435        C  0.12431680  0.00265834  0.87365202     0.82300
N436        N  0.15931959  0.00776631  0.86939490    -0.80200
C437        C  0.02679541  0.77852289  0.63965932    -0.26800
C438        C  0.01269394  0.79805324  0.66037458    -0.14900
C439        C  0.49726024  0.76596558  0.67853479     0.35800
C440        C  0.49744845  0.72815101  0.67754458    -0.26200
C441        C  0.01247830  0.72159015  0.65890849    -0.15500
C442        C  0.02683978  0.74103190  0.63870877     0.36900
N443        N  0.04188879  0.72295881  0.61704795    -0.89700
H444        H  0.03784597  0.79238366  0.62367327     0.18000
H445        H  0.48433352  0.71375256  0.69242925     0.18000
N446        N  0.47978894  0.78359830  0.69943160    -0.88800
H447        H  0.06839605  0.73054788  0.61546223     0.35300
H448        H  0.02806103  0.73170070  0.60085900     0.40400
H449        H  0.45966314  0.80060680  0.69232445     0.40100
H450        H  0.49840297  0.79883153  0.70945028     0.34900
C451        C  0.26815893  0.99480493  0.82435042    -0.26800
C452        C  0.28704422  0.50133669  0.84435323    -0.14900
C453        C  0.26731397  0.52200073  0.86237547     0.35800
C454        C  0.23004610  0.52253214  0.86145280    -0.26200
C455        C  0.21068739  0.01427529  0.84169062    -0.15500
C456        C  0.23071014  0.99421942  0.82354379     0.36900
N457        N  0.21398898  0.97147046  0.80505618    -0.89700
H458        H  0.28311871  0.97811255  0.81104074     0.18000
H459        H  0.21561584  0.53787891  0.87581184     0.18000
N460        N  0.28419567  0.54305487  0.88179923    -0.88800
H461        H  0.19749496  0.98737935  0.79349319     0.35300
H462        H  0.19839824  0.95305539  0.81451512     0.40400
H463        H  0.30268793  0.55964734  0.87336357     0.40100
H464        H  0.29723731  0.52588258  0.89451511     0.34900
C465        C  0.27140005  0.52716446  0.13737479    -0.26800
C466        C  0.28754566  0.01454758  0.16066206    -0.14900
C467        C  0.26822719  0.00056083  0.18102464     0.35800
C468        C  0.23103273  0.00575728  0.18161861    -0.26200
C469        C  0.21289662  0.02440061  0.16221263    -0.15500
C470        C  0.23446834  0.53297830  0.13768717     0.36900
N471        N  0.21743618  0.55421754  0.11824634    -0.89700
H472        H  0.28671714  0.53815242  0.12208011     0.18000
H473        H  0.21600243  0.99354381  0.19656370     0.18000
N474        N  0.28607832  0.97979712  0.20033856    -0.88800
H475        H  0.23609130  0.56319671  0.10529254     0.35300
H476        H  0.20639533  0.57713573  0.12704996     0.40400
H477        H  0.29613546  0.95628930  0.19172761     0.40100
H478        H  0.26804038  0.97180417  0.21405616     0.34900
C479        C  0.40873053  0.50318209  0.93952431    -0.26800
C480        C  0.42996192  0.98475473  0.94416080    -0.14900
C481        C  0.43385904  0.95909817  0.92425993     0.35800
C482        C  0.41489948  0.96409113  0.90138935    -0.26200
C483        C  0.39558181  0.48248285  0.89653492    -0.15500
C484        C  0.38909860  0.50679035  0.91678919     0.36900
N485        N  0.36391010  0.53606457  0.91378199    -0.89700
H486        H  0.40440263  0.52251001  0.95480541     0.18000
H487        H  0.41878855  0.94513699  0.88581424     0.18000
N488        N  0.45854985  0.92926270  0.92665247    -0.88800
H489        H  0.37350581  0.55280441  0.89971915     0.35300
H490        H  0.36233365  0.55158332  0.93043863     0.40400
H491        H  0.44813996  0.91181666  0.93994338     0.40100
H492        H  0.46019442  0.91466474  0.90959116     0.34900
C493        C  0.40498131  0.50163217  0.05905186    -0.26800
C494        C  0.42813513  0.98280113  0.05843295    -0.14900
C495        C  0.43255026  0.95646630  0.07733712     0.35800
C496        C  0.41242611  0.95896308  0.09955162    -0.26200
C497        C  0.38752250  0.98704023  0.10333309    -0.15500
C498        C  0.38451310  0.50441466  0.08105720     0.36900
N499        N  0.36040560  0.53452105  0.08378269    -0.89700
H500        H  0.40198752  0.52229142  0.04482619     0.18000
H501        H  0.41734026  0.93955462  0.11442765     0.18000
N502        N  0.45889983  0.92827855  0.07480978    -0.88800
H503        H  0.36742675  0.54905967  0.10012532     0.35300
H504        H  0.33470550  0.52490509  0.08594178     0.40400
H505        H  0.44605638  0.90371397  0.07581500     0.40100
H506        H  0.47645367  0.93001678  0.09028074     0.34900
C507        C  0.07332431  0.97150447  0.93026035    -0.26800
C508        C  0.07574082  0.00131830  0.94680324    -0.14900
C509        C  0.09859912  0.51720024  0.94112548     0.35800
C510        C  0.11719026  0.51525369  0.91801018    -0.26200
C511        C  0.11067925  0.00029956  0.89966541    -0.15500
C512        C  0.09036379  0.97081533  0.90671594     0.36900
N513        N  0.08655906  0.94062723  0.88966888    -0.89700
H514        H  0.05663913  0.94929226  0.93514454     0.18000
H515        H  0.13750293  0.53462920  0.91417562     0.18000
N516        N  0.10727783  0.54385400  0.96003317    -0.88800
H517        H  0.05373615  0.42061760  0.89221920     0.35300
H518        H  0.11174987  0.92859548  0.88740743     0.40400
H519        H  0.11647085  0.53031319  0.97617183     0.40100
H520        H  0.11902040  0.07867339  0.94988226     0.34900
C521        C  0.05196780  0.03072943  0.08340223    -0.26800
C522        C  0.06800483  0.01086215  0.06362767    -0.14900
C523        C  0.09598272  0.48806034  0.06475629     0.35800
C524        C  0.11485378  0.49156908  0.08773069    -0.26200
C525        C  0.10268871  0.01836734  0.11125595    -0.15500
C526        C  0.06873845  0.03446771  0.10720664     0.36900
N527        N  0.05149114  0.05477870  0.12717332    -0.89700
H528        H  0.02583840  0.04293585  0.08035299     0.18000
H529        H  0.13736503  0.47365145  0.09146096     0.18000
N530        N  0.10770492  0.46124340  0.04677608    -0.88800
H531        H  0.02647739  0.06438795  0.12118774     0.35300
H532        H  0.06685080  0.07731656  0.13104201     0.40400
H533        H  0.11242024  0.47373696  0.02949472     0.40100
H534        H  0.10397087  0.95273404  0.04290371     0.34900
C535        C  0.03526658  0.77545206  0.35560016    -0.26800
C536        C  0.01300990  0.79627379  0.33980226    -0.14900
C537        C  0.48828570  0.75867323  0.31759838     0.35800
C538        C  0.48794812  0.72078142  0.31844778    -0.26200
C539        C  0.00874779  0.72054986  0.33961815    -0.15500
C540        C  0.03345875  0.73790473  0.35567736     0.36900
N541        N  0.05621407  0.71728149  0.37238314    -0.89700
H542        H  0.05379704  0.78865621  0.36835298     0.18000
H543        H  0.47118259  0.70609317  0.30527606     0.18000
N544        N  0.46695072  0.77770811  0.29916455    -0.88800
H545        H  0.07261451  0.73408923  0.38314116     0.35300
H546        H  0.07299849  0.70118386  0.36107544     0.40400
H547        H  0.44728515  0.79234999  0.30898750     0.40100
H548        H  0.45368632  0.75966614  0.28721464     0.34900
C549        C  0.03215744  0.97563799  0.28689612    -0.26800
C550        C  0.00539791  0.97455671  0.26780866    -0.14900
C551        C  0.48273185  0.92582958  0.26089813     0.35800
C552        C  0.48588069  0.89829924  0.27908416    -0.26200
C553        C  0.01364735  0.91967861  0.30493806    -0.15500
C554        C  0.03622551  0.94918034  0.30518518     0.36300
N555        N  0.06358152  0.95259832  0.32411683    -0.89700
H556        H  0.04935473  0.99857455  0.28839752     0.18000
H557        H  0.46745926  0.87630347  0.27837986     0.18000
N558        N  0.45779619  0.92135957  0.24047732    -0.88800
H559        H  0.05935166  0.97701733  0.33377553     0.35300
H560        H  0.08806155  0.95371202  0.31491495     0.40400
H561        H  0.43258214  0.91813452  0.24827047     0.40100
H562        H  0.46449905  0.89758841  0.23069638     0.34900
C563        C  0.44639350  0.50584968  0.18380026    -0.26800
C564        C  0.41158777  0.00021593  0.19366650    -0.14900
C565        C  0.40589108  0.99255600  0.21946312     0.35800
C566        C  0.43522921  0.99212547  0.23656039    -0.26200
C567        C  0.47059050  0.99695913  0.22829447    -0.15500
C568        C  0.47446396  0.50680929  0.20120108     0.36900
N569        N  0.50710713  0.52162402  0.19266402    -0.89700
H570        H  0.45167530  0.51331377  0.16437933     0.18000
H571        H  0.43070384  0.98592175  0.25627732     0.18000
N572        N  0.37101325  0.98376479  0.22806933    -0.88800
H573        H  0.51591806  0.50666216  0.17689864     0.35300
H574        H  0.00453430  0.56975513  0.18893176     0.40400
H575        H  0.35509304  0.00707534  0.22701071     0.40100
H576        H  0.36951816  0.47984793  0.24466810     0.34900
C577        C  0.00392822  0.60460452  0.28126023    -0.26800
C578        C  0.99018779  0.59652135  0.30521376    -0.14900
C579        C  0.47326936  0.54359345  0.30713641     0.35800
C580        C  0.47678943  0.51741960  0.28822107    -0.26200
C581        C  0.99908822  0.54168874  0.26675896    -0.15500
C582        C  0.00704642  0.57818779  0.26181288     0.36900
N583        N  0.01768161  0.58912325  0.23714944    -0.89700
H584        H  0.01256382  0.63158063  0.27750848     0.18000
H585        H  0.46480360  0.49189337  0.29197950     0.18000
N586        N  0.45379912  0.53416803  0.32929901    -0.88800
H587        H  0.04204086  0.60203707  0.23887863     0.35300
H588        H  0.99888157  0.60800839  0.23058002     0.40400
H589        H  0.43415829  0.55385844  0.33287972     0.40100
H590        H  0.47112820  0.53161623  0.34481590     0.34900
C591        C  0.07447070  0.98414063  0.20283520    -0.26800
C592        C  0.09733618  0.50882728  0.19855241    -0.14900
C593        C  0.09684111  0.53171879  0.22012909     0.35800
C594        C  0.06890751  0.52943867  0.23764471    -0.26200
C595        C  0.03852385  0.00867080  0.23766956    -0.15500
C596        C  0.04588721  0.98118055  0.21928480     0.36900
N597        N  0.02257886  0.95164988  0.21565774    -0.89700
H598        H  0.07780593  0.96427909  0.18774265     0.18000
H599        H  0.06925643  0.54689242  0.25417460     0.18000
N600        N  0.12309612  0.55858441  0.22400138    -0.88800
H601        H  0.03747070  0.92784639  0.21797136     0.35300
H602        H  0.51104290  0.93701493  0.19176977     0.40400
H603        H  0.12266195  0.57546638  0.20828318     0.40100
H604        H  0.14808289  0.54576555  0.22503780     0.34900
C605        C  0.43821876  0.47037525  0.76836163    -0.26800
C606        C  0.46239407  0.49918781  0.76786993    -0.14900
C607        C  0.46338557  0.02775337  0.79077555     0.35800
C608        C  0.43537226  0.02806783  0.80819308    -0.26200
C609        C  0.40721231  0.49574849  0.80504096    -0.15500
C610        C  0.41042708  0.46884938  0.78601833     0.36900
N611        N  0.38745222  0.43845571  0.78476996    -0.89700
H612        H  0.44109108  0.44765435  0.75561117     0.18000
H613        H  0.43511640  0.04812045  0.82331625     0.18000
N614        N  0.49023897  0.05426471  0.79370429    -0.88800
H615        H  0.37363760  0.43958583  0.76745680     0.35300
H616        H  0.36828012  0.43950744  0.79896529     0.40400
H617        H  0.97204559  0.09033455  0.79620410     0.40100
H618        H  0.50221734  0.05098114  0.81155643     0.34900
C619        C  0.03231322  0.98146240  0.78857422    -0.26800
C620        C  0.02955603  0.01129752  0.77213659    -0.14900
C621        C  0.05728677  0.53579079  0.77619961     0.35800
C622        C  0.08556978  0.52901904  0.79337812    -0.26200
C623        C  0.08633983  0.00354785  0.80862593    -0.15500
C624        C  0.05999289  0.97725676  0.80631645     0.36900
N625        N  0.06089653  0.94553350  0.82144850    -0.89700
H626        H  0.01257334  0.96069851  0.78735571     0.18000
H627        H  0.10515842  0.54957979  0.79661966     0.18000
N628        N  0.05480833  0.57086816  0.76542094    -0.88800
H629        H  0.05767282  0.95286963  0.84049602     0.35300
H630        H  0.08571931  0.93268896  0.81925633     0.40400
H631        H  0.07818365  0.57524001  0.75539538     0.40100
H632        H  0.05333207  0.58982972  0.78021706     0.34900
C633        C  0.02761860  0.95559800  0.73356711    -0.26800
C634        C  0.99719595  0.97916217  0.73458556    -0.14900
C635        C  0.47013382  0.96071448  0.71432978     0.35800
C636        C  0.47365367  0.93291861  0.69618624    -0.26200
C637        C  0.00392966  0.92173370  0.69782804    -0.15500
C638        C  0.03110846  0.92721641  0.71592907     0.36900
N639        N  0.06351672  0.90586523  0.71635965    -0.89700
H640        H  0.05071440  0.95983207  0.74541068     0.18000
H641        H  0.45324953  0.93035756  0.68160117     0.18000
N642        N  0.43920739  0.98379001  0.71145554    -0.88800
H643        H  0.08446322  0.92273114  0.71206286     0.35300
H644        H  0.06359969  0.88560259  0.70251353     0.40400
H645        H  0.43738035  0.00323931  0.72556384     0.40100
H646        H  0.41671224  0.96803229  0.71339884     0.34900
C647        C  0.97903495  0.60240677  0.71517150    -0.26800
C648        C  0.00740555  0.60098763  0.69826172    -0.14900
C649        C  0.52876857  0.55937159  0.69588069     0.35800
C650        C  0.52481146  0.53212256  0.71366094    -0.26200
C651        C  0.00000480  0.54635465  0.73547696    -0.15500
C652        C  0.97453440  0.57551751  0.73339992     0.36900
N653        N  0.94271598  0.57750205  0.74810905    -0.89700
H654        H  0.95880762  0.62341974  0.71318372     0.18000
H655        H  0.54529984  0.51124358  0.71452812     0.18000
N656        N  0.55919377  0.55887894  0.67967559    -0.88800
H657        H  0.92083827  0.57722886  0.73568625     0.35300
H658        H  0.94195589  0.60226539  0.75769299     0.40400
H659        H  0.55954120  0.53466926  0.66939052     0.40100
H660        H  0.58201644  0.55934081  0.69118667     0.34900
C661        C  0.04394752  0.94211019  0.42823940    -0.26800
C662        C  0.01445821  0.93716417  0.44392898    -0.14900
C663        C  0.47963096  0.89542484  0.43101116     0.35800
C664        C  0.48225188  0.87793415  0.40717583    -0.26200
C665        C  0.01982070  0.90106647  0.39663821    -0.15500
C666        C  0.04681380  0.92445241  0.40477243     0.36900
N667        N  0.07749531  0.93067245  0.38967543    -0.89700
H668        H  0.06421795  0.96108429  0.43365052     0.18000
H669        H  0.46171580  0.85964985  0.40107380     0.18000
N670        N  0.45040084  0.88819906  0.44745835    -0.88800
H671        H  0.06917771  0.94257135  0.37277712     0.35300
H672        H  0.08981004  0.90589403  0.38544308     0.40400
H673        H  0.46097085  0.87616554  0.46378816     0.40100
H674        H  0.43343963  0.86951641  0.43902075     0.34900
C675        C  0.49316044  0.87506533  0.58371975    -0.26800
C676        C  0.01502232  0.90425549  0.60630838    -0.14900
C677        C  0.03782366  0.93291179  0.60178793     0.35800
C678        C  0.03778626  0.94899876  0.57791462    -0.26200
C679        C  0.51124171  0.92194369  0.55513717    -0.15500
C680        C  0.49210600  0.89049266  0.55944462     0.36900
N681        N  0.47137192  0.87472949  0.53928872    -0.89700
H682        H  0.47789243  0.85131256  0.58725584     0.18000
H683        H  0.05455933  0.97188853  0.57503454     0.18000
N684        N  0.06093425  0.94590430  0.62148707    -0.88800
H685        H  0.45884896  0.85171563  0.54558441     0.35300
H686        H  0.48897780  0.86631475  0.52503638     0.40400
H687        H  0.05485067  0.97312897  0.62462763     0.40100
H688        H  0.08711451  0.94374311  0.61499969     0.34900
C689        C  0.46147030  0.57915728  0.40045635    -0.26800
C690        C  0.98918168  0.61973583  0.39674635    -0.14900
C691        C  0.01555661  0.62552369  0.41547463     0.35800
C692        C  0.01432599  0.60653273  0.43840133    -0.26200
C693        C  0.98712485  0.58211498  0.44304122    -0.15500
C694        C  0.45941664  0.56121888  0.42365396     0.36900
N695        N  0.43016353  0.53795544  0.42819380    -0.89700
H696        H  0.44100031  0.57518216  0.38610998     0.18000
H697        H  0.03545980  0.60979845  0.45232864     0.18000
N698        N  0.04438629  0.64920211  0.41067338    -0.88800
H699        H  0.41332566  0.53668990  0.41229643     0.35300
H700        H  0.41501228  0.54970980  0.44276346     0.40400
H701        H  0.05928186  0.63807070  0.39573847     0.40100
H702        H  0.06151217  0.65053576  0.42640714     0.34900
C703        C  0.01429135  0.60688743  0.56115104    -0.26800
C704        C  0.49209521  0.56434653  0.55587650    -0.14900
C705        C  0.46576830  0.56056478  0.57466617     0.35800
C706        C  0.46920153  0.57912148  0.59789466    -0.26200
C707        C  0.00006591  0.61237908  0.60611376    -0.15500
C708        C  0.01767122  0.62525754  0.58451602     0.36900
N709        N  0.04007269  0.65593839  0.58653639    -0.89700
H710        H  0.02838983  0.61614071  0.54469266     0.18000
H711        H  0.44984301  0.57527106  0.61269535     0.18000
N712        N  0.43657758  0.53672090  0.57070791    -0.88800
H713        H  0.05074404  0.66205671  0.56888192     0.35300
H714        H  0.06158013  0.64901711  0.59837112     0.40400
H715        H  0.42002892  0.54804249  0.55674082     0.40100
H716        H  0.42110543  0.53536883  0.58705624     0.34900
O717        O  0.97063754  0.47211119  0.47241152    -0.74900
O718        O  0.96466899  0.03611334  0.52878854    -0.74900
O719        O  0.96353678  0.03827070  0.47707218    -0.75000
O720        O  0.97354182  0.46947354  0.52415782    -0.75000
O721        O  0.53379593  0.46084447  0.52318362    -0.75000
O722        O  0.51686585  0.03059961  0.47185780    -0.74900
O723        O  0.52021173  0.02990840  0.52325585    -0.74900
O724        O  0.53117971  0.46031805  0.47126800    -0.75000
Ni725      Ni  0.96615292  0.50648534  0.49950626     1.25400
Ni726      Ni  0.52698907  0.99491002  0.49689118     1.25400
C727        C  0.50281991  0.44597463  0.46242599     0.87300
C728        C  0.99169657  0.05252737  0.53777960     0.87200
C729        C  0.48510363  0.03741125  0.46399866     0.87200
C730        C  0.00462395  0.46189157  0.53304432     0.87400
C731        C  0.49788527  0.99958636  0.75224663    -0.03000
C732        C  0.50066330  0.49040054  0.24641452    -0.03000
C733        C  0.50591452  0.31842821  0.33980243     0.79800
N734        N  0.50572984  0.33977993  0.31892177    -0.78600
C735        C  0.50634385  0.37618411  0.32185558     0.82200
N736        N  0.50694112  0.39095025  0.34557600    -0.78500
C737        C  0.50668124  0.36994727  0.36634821     0.82300
N738        N  0.50613500  0.33382298  0.36338640    -0.80200
O739        O  0.54354454  0.45379057  0.97603458    -0.74900
O740        O  0.96140186  0.47870202  0.02750613    -0.74900
O741        O  0.96340712  0.47081905  0.97605443    -0.75000
O742        O  0.54210268  0.45336587  0.02786058    -0.75000
O743        O  0.53468134  0.01563311  0.02904186    -0.75000
O744        O  0.96688346  0.02867980  0.97535661    -0.74900
O745        O  0.96421114  0.03096009  0.02699317    -0.74900
O746        O  0.53559635  0.01519950  0.97728051    -0.75000
Ni747      Ni  0.50752019  0.44843778  0.00090214     1.25400
Ni748      Ni  0.49910235  0.01696935  0.00275362     1.25400
C749        C  0.55144159  0.48449678  0.96726923     0.87300
C750        C  0.95002262  0.51013868  0.03405858     0.87200
C751        C  0.95289112  0.49945473  0.96476917     0.87200
C752        C  0.54923595  0.48411113  0.03764357     0.87400
C753        C  0.82737630  0.51538123  0.15688951     0.79800
N754        N  0.85105441  0.51595805  0.17672675    -0.78600
C755        C  0.88657265  0.51792089  0.17212359     0.82200
N756        N  0.89772305  0.51900289  0.14771744    -0.78500
C757        C  0.87456536  0.51860844  0.12800374     0.82300
N758        N  0.83933126  0.51662795  0.13258619    -0.80200
C759        C  0.49742480  0.16416968  0.34365720     0.79800
N760        N  0.49475224  0.14081930  0.32348527    -0.78600
C761        C  0.48767996  0.10551867  0.32746359     0.82200
N762        N  0.48319558  0.09451659  0.35156595    -0.78500
C763        C  0.48545333  0.11715179  0.37168482     0.82300
N764        N  0.49278661  0.15205492  0.36770435    -0.80200
C765        C  0.67506783  0.00878338  0.15830112     0.79800
N766        N  0.65903854  0.00446722  0.13515168    -0.78600
C767        C  0.62382932  0.99753841  0.13327874     0.82200
N768        N  0.60471134  0.99514612  0.15477787    -0.78500
C769        C  0.62005383  0.99935847  0.17800933     0.82300
N770        N  0.65543898  0.00593258  0.17982659    -0.80200
C771        C  0.82488112  0.00775222  0.84795917     0.79800
N772        N  0.84569959  0.00825329  0.82677048    -0.78600
C773        C  0.88190922  0.00576358  0.82913170     0.82200
N774        N  0.89694487  0.00264223  0.85247249    -0.78500
C775        C  0.87675169  0.00196997  0.87354088     0.82300
N776        N  0.84080312  0.00455233  0.87121161    -0.80200
C777        C  0.51063288  0.32274031  0.65478707     0.79800
N778        N  0.50803023  0.34504536  0.67555176    -0.78600
C779        C  0.50710895  0.38145613  0.67262032     0.82200
N780        N  0.50889934  0.39535355  0.64900704    -0.78500
C781        C  0.51163087  0.37357176  0.62829813     0.82300
N782        N  0.51216098  0.33747945  0.63127928    -0.80200
C783        C  0.50834900  0.16603715  0.65385772     0.79800
N784        N  0.50845354  0.14545117  0.67516012    -0.78600
C785        C  0.50549969  0.10907299  0.67300166     0.82200
N786        N  0.50150561  0.09360134  0.64973099    -0.78500
C787        C  0.50075365  0.11376629  0.62851391     0.82300
N788        N  0.50429387  0.14985548  0.63070420    -0.80200
C789        C  0.66869919  0.50268429  0.84295347     0.79800
N790        N  0.64563166  0.49989892  0.82281222    -0.78600
C791        C  0.61052862  0.49302112  0.82679781     0.82200
N792        N  0.59877257  0.48950441  0.85087563    -0.78500
C793        C  0.62128345  0.49273193  0.87094143     0.82300
N794        N  0.65602092  0.49949860  0.86694046    -0.80200
C795        C  0.52609510  0.26283352  0.63600579    -0.26800
C796        C  0.51238473  0.28256893  0.65682147    -0.14900
C797        C  0.98715344  0.28115891  0.67853038     0.35800
C798        C  0.98790715  0.24329882  0.67860955    -0.26200
C799        C  0.51193423  0.20589993  0.65547920    -0.15500
C800        C  0.52608972  0.22523103  0.63515203     0.36900
N801        N  0.54093170  0.20688802  0.61351030    -0.89700
H802        H  0.53689361  0.27662269  0.61990111     0.18000
H803        H  0.97339759  0.22945621  0.69308794     0.18000
N804        N  0.96706325  0.29971909  0.69779300    -0.88800
H805        H  0.56743603  0.21442215  0.61178387     0.35300
H806        H  0.52700237  0.21547658  0.59732680     0.40400
H807        H  0.94799678  0.31636225  0.68900711     0.40100
H808        H  0.98430449  0.31548624  0.70863516     0.34900
C809        C  0.76579720  0.49525017  0.82100082    -0.26800
C810        C  0.78510029  0.00965562  0.84595593    -0.14900
C811        C  0.76368553  0.02530933  0.86540897     0.35800
C812        C  0.72662901  0.02348485  0.86388566    -0.26200
C813        C  0.70760240  0.50887473  0.83981008    -0.15500
C814        C  0.72833108  0.49366056  0.81985213     0.36900
N815        N  0.71240505  0.47513875  0.79878991    -0.89700
H816        H  0.78126564  0.48216419  0.80613877     0.18000
H817        H  0.71115791  0.03507535  0.87933963     0.18000
N818        N  0.77845450  0.04329698  0.88713924    -0.88800
H819        H  0.69555745  0.49316723  0.78916715     0.35300
H820        H  0.69734985  0.45416828  0.80570772     0.40400
H821        H  0.79625667  0.06251687  0.88105144     0.40100
H822        H  0.79161057  0.02443047  0.89854794     0.34900
C823        C  0.76981760  0.02869028  0.13987584    -0.26800
C824        C  0.78862908  0.51432562  0.16104900    -0.14900
C825        C  0.77331850  0.49070428  0.17841384     0.35800
C826        C  0.73603187  0.48731595  0.17864436    -0.26200
C827        C  0.71420901  0.50693123  0.16175692    -0.15500
C828        C  0.73254625  0.02958706  0.13976651     0.36900
N829        N  0.71335738  0.04664635  0.11928561    -0.89700
H830        H  0.78364269  0.04044742  0.12415973     0.18000
H831        H  0.72414011  0.46805736  0.19108106     0.18000
N832        N  0.79559423  0.46920924  0.19486458    -0.88800
H833        H  0.73087510  0.05675393  0.10596214     0.35300
H834        H  0.69936198  0.06874952  0.12694532     0.40400
H835        H  0.81053770  0.45147350  0.18344258     0.40100
H836        H  0.78008718  0.45340252  0.20651647     0.34900
C837        C  0.90592595  0.01940620  0.94180706    -0.26800
C838        C  0.92907850  0.49702444  0.94229440    -0.14900
C839        C  0.93375517  0.46940842  0.92385649     0.35800
C840        C  0.91445702  0.47118746  0.90093299    -0.26200
C841        C  0.89457089  0.99853539  0.89855691    -0.15500
C842        C  0.88535063  0.02085004  0.91939582     0.36900
N843        N  0.85638684  0.04630429  0.91745661    -0.89700
H844        H  0.89927135  0.03737741  0.95749154     0.18000
H845        H  0.91885956  0.45076670  0.88637426     0.18000
N846        N  0.95954254  0.44085128  0.92773702    -0.88800
H847        H  0.86638942  0.07198781  0.92057602     0.35300
H848        H  0.83847105  0.04118528  0.93197688     0.40400
H849        H  0.94984068  0.42446239  0.94195673     0.40100
H850        H  0.96170673  0.42457466  0.91147032     0.34900
C851        C  0.90383524  0.02338407  0.06153263    -0.26800
C852        C  0.92517453  0.51448247  0.05559125    -0.14900
C853        C  0.90125672  0.48744448  0.06227962     0.35800
C854        C  0.88287748  0.49046566  0.08543733    -0.26200
C855        C  0.88837950  0.51968788  0.10196754    -0.15500
C856        C  0.88389988  0.02428500  0.08395835     0.36900
N857        N  0.85532860  0.05017646  0.08621138    -0.89700
H858        H  0.89712040  0.04203257  0.04650621     0.18000
H859        H  0.86564960  0.46912638  0.09119781     0.18000
N860        N  0.89628484  0.45680675  0.04584857    -0.88800
H861        H  0.86013436  0.06650162  0.10212479     0.35300
H862        H  0.83170439  0.03650040  0.08892147     0.40400
H863        H  0.88501875  0.46612225  0.02886793     0.40100
H864        H  0.87797172  0.43938568  0.05362345     0.34900
C865        C  0.57358267  0.45637606  0.92749775    -0.26800
C866        C  0.57425375  0.48578048  0.94450752    -0.14900
C867        C  0.59573504  0.01202068  0.94119464     0.35800
C868        C  0.61372049  0.01197337  0.91780185    -0.26200
C869        C  0.60766658  0.48897926  0.89686248    -0.15500
C870        C  0.58976678  0.45780982  0.90368431     0.36900
N871        N  0.58752242  0.42800399  0.88614597    -0.89700
H872        H  0.55885584  0.43271458  0.93224043     0.18000
H873        H  0.63112369  0.03383560  0.91341580     0.18000
N874        N  0.60144094  0.04008797  0.95968172    -0.88800
H875        H  0.56440160  0.90786279  0.89447541     0.35300
H876        H  0.61335437  0.41782798  0.88332543     0.40400
H877        H  0.61289899  0.02822144  0.97577982     0.40100
H878        H  0.60955067  0.56743323  0.94734517     0.34900
C879        C  0.55959511  0.51054712  0.08023654    -0.26800
C880        C  0.57127372  0.48662802  0.06108126    -0.14900
C881        C  0.59892355  0.00949127  0.06376708     0.35800
C882        C  0.61733438  0.01151679  0.08705653    -0.26200
C883        C  0.60779273  0.49086319  0.10821075    -0.15500
C884        C  0.57729802  0.51268876  0.10377049     0.36900
N885        N  0.56440261  0.53694911  0.12324647    -0.89700
H886        H  0.53583907  0.52698672  0.07709179     0.18000
H887        H  0.63961943  0.02939307  0.08888477     0.18000
N888        N  0.61098486  0.03050645  0.04307051    -0.88800
H889        H  0.54154214  0.55089145  0.11705624     0.35300
H890        H  0.58388898  0.55614655  0.12648495     0.40400
H891        H  0.59081682  0.04881834  0.03793549     0.40100
H892        H  0.59737100  0.42126635  0.04267028     0.34900
C893        C  0.52562935  0.25961234  0.35684140    -0.26800
C894        C  0.50740598  0.27860318  0.33768074    -0.14900
C895        C  0.98690342  0.27584749  0.31964193     0.35800
C896        C  0.98619897  0.23802060  0.32175985    -0.26200
C897        C  0.50451478  0.20281354  0.33994839    -0.15500
C898        C  0.52468542  0.22209586  0.35807104     0.36900
N899        N  0.54390817  0.20351414  0.37786046    -0.89700
H900        H  0.54037332  0.27422354  0.37126971     0.18000
H901        H  0.97328717  0.22231028  0.30702074     0.18000
N902        N  0.97104309  0.29323477  0.29798457    -0.88800
H903        H  0.55722548  0.22162013  0.38972843     0.35300
H904        H  0.56348702  0.18730362  0.36920572     0.40400
H905        H  0.94906320  0.30838767  0.30435842     0.40100
H906        H  0.96124215  0.27419660  0.28509182     0.34900
C907        C  0.52944648  0.45475215  0.28158177    -0.26800
C908        C  0.50226543  0.45537355  0.26275946    -0.14900
C909        C  0.98229470  0.44338261  0.26066546     0.35800
C910        C  0.98407844  0.41599094  0.27906557    -0.26200
C911        C  0.50766378  0.40034416  0.29985153    -0.15500
C912        C  0.53206177  0.42825016  0.29990810     0.36300
N913        N  0.55952154  0.43018174  0.31888929    -0.89700
H914        H  0.54804969  0.47653476  0.28296441     0.18000
H915        H  0.96536718  0.39426918  0.27797041     0.18000
N916        N  0.95807902  0.43917675  0.23977377    -0.88800
H917        H  0.55668790  0.45488322  0.32841926     0.35300
H918        H  0.58409174  0.42976642  0.30972275     0.40400
H919        H  0.93248361  0.43661721  0.24707529     0.40100
H920        H  0.96461551  0.41510502  0.23031052     0.34900
C921        C  0.94719677  0.02385854  0.18873168    -0.26800
C922        C  0.91406596  0.51945703  0.19270291    -0.14900
C923        C  0.90796577  0.51177518  0.21841884     0.35800
C924        C  0.93687228  0.51057244  0.23577560    -0.26200
C925        C  0.97245343  0.51488289  0.22787665    -0.15500
C926        C  0.97517510  0.02518831  0.20619970     0.36900
N927        N  0.00710564  0.04173058  0.19795190    -0.89700
H928        H  0.95219389  0.03296987  0.16964396     0.18000
H929        H  0.93155198  0.50414937  0.25533744     0.18000
N930        N  0.87284809  0.50459568  0.22702970    -0.88800
H931        H  0.01649782  0.02767478  0.18195299     0.35300
H932        H  0.50173836  0.05095977  0.18830848     0.40400
H933        H  0.86648518  0.52324652  0.24137972     0.40100
H934        H  0.87253676  0.98670850  0.24784579     0.34900
C935        C  0.49777173  0.08732647  0.28172747    -0.26800
C936        C  0.48715168  0.07817907  0.30632606    -0.14900
C937        C  0.97175391  0.06072298  0.31241527     0.35800
C938        C  0.97617458  0.03503857  0.29322564    -0.26200
C939        C  0.49650671  0.02414307  0.26739599    -0.15500
C940        C  0.50121149  0.06114585  0.26215273     0.36900
N941        N  0.50901578  0.07266391  0.23705678    -0.89700
H942        H  0.50366436  0.11496878  0.27754471     0.18000
H943        H  0.96552820  0.00884054  0.29682485     0.18000
N944        N  0.95348446  0.04975349  0.33472005    -0.88800
H945        H  0.53243857  0.08731803  0.23777263     0.35300
H946        H  0.48843186  0.09008290  0.23118983     0.40400
H947        H  0.93275344  0.06810762  0.33865874     0.40100
H948        H  0.97131843  0.04805016  0.35000627     0.34900
C949        C  0.57169600  0.45842967  0.19829522    -0.26800
C950        C  0.59768716  0.99381648  0.20045631    -0.14900
C951        C  0.59468534  0.01854459  0.22091328     0.35800
C952        C  0.56597085  0.01622863  0.23776735    -0.26200
C953        C  0.53700681  0.48691214  0.23239743    -0.15500
C954        C  0.54207917  0.45886697  0.21400679     0.36900
N955        N  0.51564089  0.43232465  0.20966578    -0.89700
H956        H  0.57346142  0.43840444  0.18319039     0.18000
H957        H  0.56475031  0.03491054  0.25358659     0.18000
N958        N  0.61911830  0.04723425  0.22423305    -0.88800
H959        H  0.52761238  0.40699151  0.21218110     0.35300
H960        H  0.00848166  0.45504375  0.19104898     0.40400
H961        H  0.61860357  0.06268037  0.20778649     0.40100
H962        H  0.64468840  0.03605729  0.22650773     0.34900
C963        C  0.93831394  0.98423068  0.77103909    -0.26800
C964        C  0.96341553  0.01228400  0.77179249    -0.14900
C965        C  0.96027426  0.53739967  0.79105324     0.35800
C966        C  0.93132345  0.53567513  0.80758231    -0.26200
C967        C  0.90615771  0.00912826  0.80733289    -0.15500
C968        C  0.90946591  0.98294077  0.78782818     0.36900
N969        N  0.88558327  0.95340584  0.78524718    -0.89700
H970        H  0.94108129  0.96195030  0.75791171     0.18000
H971        H  0.92919688  0.55524691  0.82295512     0.18000
N972        N  0.98596549  0.56471204  0.79544426    -0.88800
H973        H  0.87273924  0.95575040  0.76762346     0.35300
H974        H  0.86570371  0.95443759  0.79892565     0.40400
H975        H  0.46854689  0.57904281  0.78959901     0.40100
H976        H  0.99713609  0.56081988  0.81349116     0.34900
C977        C  0.53105170  0.46899376  0.78502684    -0.26800
C978        C  0.52829861  0.49830702  0.76813785    -0.14900
C979        C  0.55884251  0.02283089  0.77357528     0.35800
C980        C  0.58663103  0.01735582  0.79131933    -0.26200
C981        C  0.58412027  0.49254057  0.80563298    -0.15500
C982        C  0.55791361  0.46601800  0.80352480     0.36900
N983        N  0.55791122  0.43543405  0.81976753    -0.89700
H984        H  0.51156596  0.44798121  0.78390546     0.18000
H985        H  0.60674573  0.03765550  0.79340826     0.18000
N986        N  0.55789421  0.05629898  0.76051476    -0.88800
H987        H  0.55325189  0.44409202  0.83839661     0.35300
H988        H  0.58289166  0.42257793  0.81889743     0.40400
H989        H  0.58153376  0.05831160  0.75035097     0.40100
H990        H  0.55701096  0.07717180  0.77398663     0.34900
C991        C  0.52656561  0.44153692  0.72989917    -0.26800
C992        C  0.49599318  0.46488021  0.73086278    -0.14900
C993        C  0.97067100  0.47592625  0.71381263     0.35800
C994        C  0.97363390  0.44838187  0.69557472    -0.26200
C995        C  0.50291898  0.40672674  0.69442166    -0.15500
C996        C  0.53019613  0.41289212  0.71238115     0.36900
N997        N  0.56284478  0.39195331  0.71277063    -0.89700
H998        H  0.54960221  0.44617417  0.74173523     0.18000
H999        H  0.95328697  0.44653684  0.68088254     0.18000
N1000       N  0.93988828  0.49926679  0.71125082    -0.88800
H1001       H  0.58350803  0.40901561  0.70819170     0.35300
H1002       H  0.56296863  0.37148254  0.69907512     0.40400
H1003       H  0.93769229  0.51758615  0.72602552     0.40100
H1004       H  0.91730107  0.48347560  0.71249321     0.34900
C1005       C  0.47896583  0.08828963  0.71313524    -0.26800
C1006       C  0.50626720  0.08560022  0.69539921    -0.14900
C1007       C  0.02757630  0.07289635  0.69909735     0.35800
C1008       C  0.02483156  0.04612959  0.71736613    -0.26200
C1009       C  0.49973433  0.03238037  0.73378605    -0.15500
C1010       C  0.47469446  0.06195127  0.73179273     0.36900
N1011       N  0.44340485  0.06484358  0.74702090    -0.89700
H1012       H  0.45923396  0.10983147  0.71146291     0.18000
H1013       H  0.04479924  0.02471114  0.71730398     0.18000
N1014       N  0.05527217  0.07027288  0.68060246    -0.88800
H1015       H  0.42111835  0.06446217  0.73497984     0.35300
H1016       H  0.44329843  0.08983919  0.75629653     0.40400
H1017       H  0.05249629  0.04604002  0.67058958     0.40100
H1018       H  0.07972838  0.06930823  0.69023383     0.34900
C1019       C  0.53503355  0.42430365  0.42399820    -0.26800
C1020       C  0.50506967  0.42208610  0.43962822    -0.14900
C1021       C  0.97209472  0.42136552  0.43050090     0.35800
C1022       C  0.97328568  0.40425727  0.40654520    -0.26200
C1023       C  0.50734896  0.38637910  0.39195101    -0.15500
C1024       C  0.53636810  0.40688234  0.40038457     0.36900
N1025       N  0.56765539  0.41036582  0.38539781    -0.89700
H1026       H  0.55716681  0.44088671  0.42964458     0.18000
H1027       H  0.95015617  0.39036247  0.39934484     0.18000
N1028       N  0.94040515  0.41978027  0.44549827    -0.88800
H1029       H  0.56048123  0.42308782  0.36853938     0.35300
H1030       H  0.57774264  0.38464741  0.38105674     0.40400
H1031       H  0.94685833  0.40529434  0.46185158     0.40100
H1032       H  0.92070011  0.40541226  0.43589236     0.34900
C1033       C  0.98747823  0.39269535  0.58387848    -0.26800
C1034       C  0.51352328  0.38929497  0.60273688    -0.14900
C1035       C  0.53575659  0.41850150  0.59816877     0.35800
C1036       C  0.53427679  0.43527471  0.57446566    -0.26200
C1037       C  0.00822012  0.43944221  0.55597555    -0.15500
C1038       C  0.98648616  0.40965669  0.56007382     0.36900
N1039       N  0.96321298  0.39711389  0.54020537    -0.89700
H1040       H  0.97026520  0.37030964  0.58725672     0.18000
H1041       H  0.55047191  0.45851314  0.57131701     0.18000
N1042       N  0.55945172  0.43126118  0.61773562    -0.88800
H1043       H  0.94888505  0.37511082  0.54630326     0.35300
H1044       H  0.97915790  0.38787077  0.52521736     0.40400
H1045       H  0.57371948  0.45317029  0.61140350     0.40100
H1046       H  0.57813487  0.41071677  0.62140744     0.34900
C1047       C  0.95794170  0.09290194  0.40522376    -0.26800
C1048       C  0.48094185  0.10249728  0.39741516    -0.14900
C1049       C  0.50380790  0.11134952  0.41776984     0.35800
C1050       C  0.50309696  0.09128637  0.44016774    -0.26200
C1051       C  0.47976964  0.06255052  0.44267173    -0.15500
C1052       C  0.95765868  0.07365180  0.42796164     0.36900
N1053       N  0.93148296  0.04659439  0.43150367    -0.89700
H1054       H  0.93838958  0.08713079  0.39054764     0.18000
H1055       H  0.52201438  0.09717655  0.45524033     0.18000
N1056       N  0.52937330  0.13899244  0.41521112    -0.88800
H1057       H  0.91550915  0.04379368  0.41525987     0.35300
H1058       H  0.91452458  0.05578022  0.44592786     0.40400
H1059       H  0.55476025  0.12753313  0.41789452     0.40100
H1060       H  0.52502574  0.15800307  0.42969679     0.34900
C1061       C  0.51078774  0.08786365  0.55876769    -0.26800
C1062       C  0.98812745  0.07485411  0.56079513    -0.14900
C1063       C  0.97519258  0.05998885  0.58326274     0.35800
C1064       C  0.97775231  0.07958266  0.60605608    -0.26200
C1065       C  0.49584637  0.09620019  0.60336411    -0.15500
C1066       C  0.51480796  0.10692569  0.58180259     0.36900
N1067       N  0.53926892  0.13599980  0.58359747    -0.89700
H1068       H  0.52615731  0.09538849  0.54243129     0.18000
H1069       H  0.96814597  0.06775281  0.62331740     0.18000
N1070       N  0.96177734  0.02408559  0.58318234    -0.88800
H1071       H  0.55087366  0.14058855  0.56599622     0.35300
H1072       H  0.55993615  0.12811681  0.59588712     0.40400
H1073       H  0.93775933  0.02442042  0.57300875     0.40100
H1074       H  0.95571742  0.01622518  0.60161034     0.34900
O1075       O  0.97823311  0.96719282  0.47507562    -0.74900
O1076       O  0.96582154  0.54106394  0.52669782    -0.74900
O1077       O  0.96297475  0.54389249  0.47474614    -0.75000
O1078       O  0.97895995  0.96537797  0.52657277    -0.75000
O1079       O  0.53287947  0.95900637  0.52242449    -0.75000
O1080       O  0.52206552  0.53224414  0.47206710    -0.74900
O1081       O  0.52433568  0.53247956  0.52359525    -0.74900
O1082       O  0.52980810  0.95917412  0.47045758    -0.75000
Ni1083     Ni  0.96928151  0.00138929  0.50182372     1.25400
Ni1084     Ni  0.52992919  0.49662710  0.49746874     1.25400
C1085       C  0.50218991  0.94369448  0.46146569     0.87300
C1086       C  0.99462157  0.55454079  0.53536032     0.87200
C1087       C  0.49084865  0.54021707  0.46363283     0.87200
C1088       C  0.01016909  0.96040765  0.53597242     0.87400
C1089       C  0.49514320  0.49903047  0.74936815    -0.03000
C1090       C  0.50227772  0.99250835  0.24763821    -0.03000
C1091       C  0.50749694  0.81748416  0.33814027     0.79800
N1092       N  0.50796123  0.83897968  0.31735551    -0.78600
C1093       C  0.51004884  0.87527397  0.32047917     0.82200
N1094       N  0.51128517  0.88975017  0.34428739    -0.78500
C1095       C  0.51028666  0.86859870  0.36498374     0.82300
N1096       N  0.50835049  0.83257305  0.36180754    -0.80200
O1097       O  0.53771912  0.95532282  0.97735244    -0.74900
O1098       O  0.96949787  0.97119547  0.02758328    -0.74900
O1099       O  0.97241513  0.96891680  0.97593649    -0.75000
O1100       O  0.53623806  0.95573129  0.02916614    -0.75000
O1101       O  0.53530830  0.51297718  0.02856093    -0.75000
O1102       O  0.96387821  0.53031490  0.97200841    -0.74900
O1103       O  0.96174224  0.53820223  0.02338570    -0.74900
O1104       O  0.53755185  0.51346386  0.97660416    -0.75000
Ni1105     Ni  0.50138039  0.95285147  0.00229540     1.25400
Ni1106     Ni  0.50070350  0.51229963  0.00162521     1.25400
C1107       C  0.54787737  0.98518840  0.96843710     0.87300
C1108       C  0.95587646  0.00058897  0.03622308     0.87200
C1109       C  0.95900659  0.99774983  0.96636366     0.87200
C1110       C  0.54638912  0.98598129  0.03827453     0.87400
C1111       C  0.82868625  0.00959070  0.15693529     0.79800
N1112       N  0.85121681  0.01055675  0.17745952    -0.78600
C1113       C  0.88710154  0.00828911  0.17401141     0.82200
N1114       N  0.89981619  0.00477333  0.15005440    -0.78500
C1115       C  0.87786171  0.00421259  0.12961222     0.82300
N1116       N  0.84231498  0.00670079  0.13311002    -0.80200
C1117       C  0.50114989  0.66315012  0.34102524     0.79800
N1118       N  0.49665739  0.64011014  0.32089413    -0.78600
C1119       C  0.49042026  0.60467760  0.32499463     0.82200
N1120       N  0.48869401  0.59306355  0.34922166    -0.78500
C1121       C  0.49283276  0.61560521  0.36927375     0.82300
N1122       N  0.49917505  0.65063164  0.36513041    -0.80200
C1123       C  0.67596901  0.49920334  0.15949662     0.79800
N1124       N  0.66064134  0.49680382  0.13599447    -0.78600
C1125       C  0.62530777  0.49101836  0.13346282     0.82200
N1126       N  0.60544628  0.48739006  0.15453277    -0.78500
C1127       C  0.62036800  0.48938933  0.17807765     0.82300
N1128       N  0.65578846  0.49532820  0.18059439    -0.80200
C1129       C  0.82303644  0.50854098  0.84422308     0.79800
N1130       N  0.84474397  0.50851190  0.82346772    -0.78600
C1131       C  0.88086218  0.50541367  0.82664823     0.82200
N1132       N  0.89485510  0.50214245  0.85031212    -0.78500
C1133       C  0.87365815  0.50194908  0.87086180     0.82300
N1134       N  0.83792276  0.50520236  0.86776179    -0.80200
C1135       C  0.51041464  0.82533659  0.65631347     0.79800
N1136       N  0.50780254  0.84773753  0.67696387    -0.78600
C1137       C  0.50637000  0.88407227  0.67387516     0.82200
N1138       N  0.50765105  0.89781829  0.65016120    -0.78500
C1139       C  0.51049458  0.87581564  0.62953118     0.82300
N1140       N  0.51159489  0.83977842  0.63273842    -0.80200
C1141       C  0.50848300  0.66939835  0.65455983     0.79800
N1142       N  0.50697310  0.64794694  0.67538422    -0.78600
C1143       C  0.50337582  0.61174448  0.67229644     0.82200
N1144       N  0.50036768  0.59741053  0.64860836    -0.78500
C1145       C  0.50130652  0.61854869  0.62793171     0.82300
N1146       N  0.50551905  0.65436221  0.63097368    -0.80200
C1147       C  0.67050777  0.99901106  0.84638314     0.79800
N1148       N  0.64805923  0.99581123  0.82593769    -0.78600
C1149       C  0.61300668  0.98829030  0.82938991     0.82200
N1150       N  0.60064851  0.98464247  0.85329638    -0.78500
C1151       C  0.62250134  0.98823514  0.87372031     0.82300
N1152       N  0.65721423  0.99567528  0.87019634    -0.80200
C1153       C  0.52962456  0.76590086  0.63889693    -0.26800
C1154       C  0.51280919  0.78540197  0.65860149    -0.14900
C1155       C  0.99970783  0.77859080  0.68125985     0.35800
C1156       C  0.99986488  0.74076736  0.68030658    -0.26200
C1157       C  0.51261348  0.70899221  0.65700822    -0.15500
C1158       C  0.52971511  0.72833022  0.63791686     0.36900
N1159       N  0.54740108  0.70996995  0.61737316    -0.89700
H1160       H  0.54256940  0.77989900  0.62373389     0.18000
H1161       H  0.98894815  0.72636800  0.69609216     0.18000
N1162       N  0.98514525  0.79614355  0.70328663    -0.88800
H1163       H  0.57406571  0.71744188  0.61753123     0.35300
H1164       H  0.53578122  0.71863018  0.60033248     0.40400
H1165       H  0.96411893  0.81314021  0.69760882     0.40100
H1166       H  0.00499136  0.81132109  0.71201544     0.34900
C1167       C  0.76781356  0.99440312  0.82468489    -0.26800
C1168       C  0.78338170  0.51162529  0.84171237    -0.14900
C1169       C  0.76230553  0.52920383  0.86056466     0.35800
C1170       C  0.72521284  0.52765206  0.85931863    -0.26200
C1171       C  0.70937958  0.00578758  0.84370195    -0.15500
C1172       C  0.73044184  0.99214004  0.82338867     0.36900
N1173       N  0.71501941  0.97450743  0.80175222    -0.89700
H1174       H  0.78348624  0.98268615  0.80939369     0.18000
H1175       H  0.70996497  0.54049616  0.87441123     0.18000
N1176       N  0.77750233  0.54926425  0.88123116    -0.88800
H1177       H  0.69791847  0.99272993  0.79253986     0.35300
H1178       H  0.70039033  0.95279447  0.80797833     0.40400
H1179       H  0.79541969  0.56755230  0.87400250     0.40100
H1180       H  0.79065827  0.53171556  0.89364106     0.34900
C1181       C  0.76647710  0.53565311  0.14552676    -0.26800
C1182       C  0.78948757  0.01270839  0.15969621    -0.14900
C1183       C  0.77123463  0.99864624  0.18056151     0.35800
C1184       C  0.73369890  0.99941599  0.18043489    -0.26200
C1185       C  0.71415689  0.01355458  0.15979236    -0.15500
C1186       C  0.72943819  0.53253883  0.14591880     0.36900
N1187       N  0.70716703  0.55515620  0.13019515    -0.89700
H1188       H  0.77823240  0.55451129  0.13270726     0.18000
H1189       H  0.71971754  0.98730219  0.19593730     0.18000
N1190       N  0.79062628  0.98241324  0.20125601    -0.88800
H1191       H  0.72256105  0.57260494  0.11970598     0.35300
H1192       H  0.69143107  0.57125549  0.14224588     0.40400
H1193       H  0.80364225  0.95934283  0.19417217     0.40100
H1194       H  0.77319024  0.97387683  0.21519682     0.34900
C1195       C  0.90403226  0.52485017  0.93779403    -0.26800
C1196       C  0.93542510  0.99575749  0.94383484    -0.14900
C1197       C  0.94420395  0.97302856  0.92315346     0.35800
C1198       C  0.92381705  0.97463917  0.90076341    -0.26200
C1199       C  0.89004311  0.49934165  0.89628968    -0.15500
C1200       C  0.88435086  0.52624406  0.91495917     0.36900
N1201       N  0.85987641  0.55565573  0.91020282    -0.89700
H1202       H  0.90055377  0.54610640  0.95186039     0.18000
H1203       H  0.93143551  0.95764682  0.88476192     0.18000
N1204       N  0.97499910  0.94971388  0.92428069    -0.88800
H1205       H  0.86983196  0.57031551  0.89513067     0.35300
H1206       H  0.85878631  0.57315967  0.92587627     0.40400
H1207       H  0.96682249  0.92342337  0.92084057     0.40100
H1208       H  0.99213176  0.95668143  0.90968989     0.34900
C1209       C  0.92819381  0.54506620  0.07127012    -0.26800
C1210       C  0.93270213  0.99915760  0.05862302    -0.14900
C1211       C  0.94135926  0.97518884  0.07838871     0.35800
C1212       C  0.92176608  0.97633645  0.10078069    -0.26200
C1213       C  0.89346369  0.00096757  0.10405940    -0.15500
C1214       C  0.91045716  0.54773551  0.09439247     0.36900
N1215       N  0.91560614  0.57913592  0.10990889    -0.89700
H1216       H  0.94614176  0.56621111  0.06629437     0.18000
H1217       H  0.92949619  0.95849220  0.11608264     0.18000
N1218       N  0.97142603  0.95098086  0.07643796    -0.88800
H1219       H  0.92787611  0.57163256  0.12696142     0.35300
H1220       H  0.89067151  0.59076585  0.11389345     0.40400
H1221       H  0.96252920  0.92484046  0.07883834     0.40100
H1222       H  0.98916779  0.95682916  0.09126860     0.34900
C1223       C  0.56814710  0.95604345  0.92854024    -0.26800
C1224       C  0.57174902  0.98435211  0.94620116    -0.14900
C1225       C  0.59333724  0.51659890  0.93799588     0.35800
C1226       C  0.61024558  0.51768124  0.91425303    -0.26200
C1227       C  0.60794469  0.98489284  0.89949769    -0.15500
C1228       C  0.58599961  0.95600936  0.90530366     0.36900
N1229       N  0.58161243  0.92694097  0.88739100    -0.89700
H1230       H  0.55010996  0.93449569  0.93238973     0.18000
H1231       H  0.62417010  0.54155273  0.90883915     0.18000
N1232       N  0.59487402  0.54683686  0.95518446    -0.88800
H1233       H  0.57299812  0.40725376  0.89392747     0.35300
H1234       H  0.60640720  0.91402488  0.88524640     0.40400
H1235       H  0.60871940  0.53846138  0.97145412     0.40100
H1236       H  0.61988189  0.05829895  0.95303790     0.34900
C1237       C  0.55963758  0.96589461  0.08183899    -0.26800
C1238       C  0.56942825  0.98670411  0.06117503    -0.14900
C1239       C  0.60228755  0.46521258  0.06542856     0.35800
C1240       C  0.62051012  0.46795650  0.08877937    -0.26200
C1241       C  0.60620913  0.99213303  0.10819469    -0.15500
C1242       C  0.57732390  0.96869548  0.10529608     0.36900
N1243       N  0.56578892  0.94755489  0.12610180    -0.89700
H1244       H  0.53715610  0.94828284  0.08007476     0.18000
H1245       H  0.64404225  0.45125510  0.09207148     0.18000
N1246       N  0.61615191  0.44094610  0.04646611    -0.88800
H1247       H  0.56735566  0.92048504  0.12061426     0.35300
H1248       H  0.53908627  0.95418838  0.12962398     0.40400
H1249       H  0.62032980  0.45536027  0.02988454     0.40100
H1250       H  0.61610285  0.01328432  0.02763180     0.34900
C1251       C  0.52930904  0.75863014  0.35353089    -0.26800
C1252       C  0.50855323  0.77776887  0.33579527    -0.14900
C1253       C  0.98943080  0.77896019  0.32281661     0.35800
C1254       C  0.98785099  0.74108731  0.32268152    -0.26200
C1255       C  0.50703853  0.70194939  0.33733264    -0.15500
C1256       C  0.52898218  0.72108987  0.35442508     0.36900
N1257       N  0.55056007  0.70232996  0.37290145    -0.89700
H1258       H  0.54562938  0.77316285  0.36709091     0.18000
H1259       H  0.96873317  0.72774515  0.31048328     0.18000
N1260       N  0.96595407  0.79982681  0.30680206    -0.88800
H1261       H  0.56485278  0.72036673  0.38420979     0.35300
H1262       H  0.56933396  0.68658992  0.36301773     0.40400
H1263       H  0.94856781  0.81448266  0.31859374     0.40100
H1264       H  0.95018088  0.78300552  0.29557300     0.34900
C1265       C  0.53306054  0.95468356  0.28099510    -0.26800
C1266       C  0.50499920  0.95641778  0.26286069    -0.14900
C1267       C  0.98509063  0.94257677  0.26606126     0.35800
C1268       C  0.98921121  0.91591657  0.28482393    -0.26200
C1269       C  0.51146701  0.89968045  0.29859218    -0.15500
C1270       C  0.53643424  0.92707386  0.29850370     0.36300
N1271       N  0.56531155  0.92724742  0.31644415    -0.89700
H1272       H  0.55180945  0.97633254  0.28248577     0.18000
H1273       H  0.97257262  0.89251080  0.28393889     0.18000
N1274       N  0.96135317  0.93576459  0.24524776    -0.88800
H1275       H  0.56411763  0.95166852  0.32646002     0.35300
H1276       H  0.58910858  0.92638104  0.30629915     0.40400
H1277       H  0.93607109  0.93140674  0.25259867     0.40100
H1278       H  0.96976797  0.91196819  0.23617104     0.34900
C1279       C  0.94833620  0.52917285  0.18576323    -0.26800
C1280       C  0.91347492  0.01199725  0.19518990    -0.14900
C1281       C  0.90700406  0.00402374  0.22085715     0.35800
C1282       C  0.93545856  0.00515364  0.23869644    -0.26200
C1283       C  0.97084344  0.01198705  0.23138076    -0.15500
C1284       C  0.97687353  0.52839100  0.20279065     0.36900
N1285       N  0.00953219  0.54313174  0.19422659    -0.89700
H1286       H  0.95347579  0.53820174  0.16669243     0.18000
H1287       H  0.93024179  0.99883789  0.25828787     0.18000
N1288       N  0.87221380  0.99368399  0.22867341    -0.88800
H1289       H  0.01755319  0.52899421  0.17789135     0.35300
H1290       H  0.50180408  0.54782668  0.18655305     0.40400
H1291       H  0.85539019  0.01630552  0.22722223     0.40100
H1292       H  0.87320117  0.47899647  0.23496904     0.34900
C1293       C  0.50111715  0.58583894  0.27953039    -0.26800
C1294       C  0.48787759  0.57793351  0.30368281    -0.14900
C1295       C  0.97628631  0.56178750  0.30848016     0.35800
C1296       C  0.98060071  0.53565855  0.28956554    -0.26200
C1297       C  0.49541057  0.52302964  0.26538790    -0.15500
C1298       C  0.50359569  0.55929284  0.26014782     0.36900
N1299       N  0.51392984  0.56973641  0.23529761    -0.89700
H1300       H  0.51005928  0.61266249  0.27563916     0.18000
H1301       H  0.96893507  0.50994130  0.29319205     0.18000
N1302       N  0.95660493  0.55188750  0.33042641    -0.88800
H1303       H  0.53840931  0.58247744  0.23672243     0.35300
H1304       H  0.49516392  0.58865410  0.22872896     0.40400
H1305       H  0.93639929  0.57106746  0.33377587     0.40100
H1306       H  0.97366807  0.54975303  0.34612295     0.34900
C1307       C  0.57432494  0.96526418  0.19899789    -0.26800
C1308       C  0.59702394  0.48514582  0.20016160    -0.14900
C1309       C  0.59532466  0.50985331  0.22072475     0.35800
C1310       C  0.56601279  0.50968408  0.23715025    -0.26200
C1311       C  0.53851621  0.99139356  0.23336907    -0.15500
C1312       C  0.54498436  0.96382314  0.21485902     0.36900
N1313       N  0.52015607  0.93572524  0.21057128    -0.89700
H1314       H  0.57718311  0.94522737  0.18397761     0.18000
H1315       H  0.56571579  0.52827970  0.25304337     0.18000
N1316       N  0.62182353  0.53647372  0.22460837    -0.88800
H1317       H  0.53361542  0.91110644  0.21295468     0.35300
H1318       H  0.01274323  0.95214297  0.19701688     0.40400
H1319       H  0.62304819  0.55206317  0.20827952     0.40100
H1320       H  0.64641944  0.52334922  0.22727671     0.34900
C1321       C  0.93957578  0.48371403  0.76976054    -0.26800
C1322       C  0.96442572  0.51201277  0.77080016    -0.14900
C1323       C  0.95979864  0.03782645  0.79204376     0.35800
C1324       C  0.93152821  0.03603575  0.80912152    -0.26200
C1325       C  0.90613133  0.50859560  0.80543395    -0.15500
C1326       C  0.91046424  0.48207546  0.78626623     0.36900
N1327       N  0.88745228  0.45181234  0.78385271    -0.89700
H1328       H  0.94285606  0.46142311  0.75667308     0.18000
H1329       H  0.93003711  0.05551187  0.82458986     0.18000
N1330       N  0.98537062  0.06541289  0.79587114    -0.88800
H1331       H  0.87489484  0.45330208  0.76608119     0.35300
H1332       H  0.86732153  0.45262596  0.79735290     0.40400
H1333       H  0.47801709  0.07973769  0.79350263     0.40100
H1334       H  0.99718828  0.06178008  0.81374193     0.34900
C1335       C  0.53266586  0.96760662  0.78757307    -0.26800
C1336       C  0.53124800  0.99701753  0.77071679    -0.14900
C1337       C  0.55415654  0.52586667  0.77146902     0.35800
C1338       C  0.58213594  0.52171336  0.78924644    -0.26200
C1339       C  0.58708028  0.98838156  0.80790876    -0.15500
C1340       C  0.55973767  0.96304035  0.80575016     0.36900
N1341       N  0.55882769  0.93201197  0.82152224    -0.89700
H1342       H  0.51206807  0.94768955  0.78656001     0.18000
H1343       H  0.60110729  0.54307657  0.79152642     0.18000
N1344       N  0.55111779  0.55967684  0.75891393    -0.88800
H1345       H  0.55465477  0.94025456  0.84028355     0.35300
H1346       H  0.58333148  0.91828301  0.82028636     0.40400
H1347       H  0.57461672  0.56359291  0.74892324     0.40100
H1348       H  0.54881856  0.58006050  0.77268461     0.34900
C1349       C  0.52689351  0.94121087  0.73238806    -0.26800
C1350       C  0.49714647  0.96563817  0.73359406    -0.14900
C1351       C  0.97030685  0.97324764  0.71540345     0.35800
C1352       C  0.97426026  0.94492414  0.69779229    -0.26200
C1353       C  0.50295764  0.90921397  0.69578327    -0.15500
C1354       C  0.53006321  0.91352615  0.71414663     0.36900
N1355       N  0.56224574  0.89180570  0.71422488    -0.89700
H1356       H  0.54995350  0.94439951  0.74443996     0.18000
H1357       H  0.95390990  0.94152391  0.68325721     0.18000
N1358       N  0.93887221  0.99555715  0.71228582    -0.88800
H1359       H  0.58344904  0.90870744  0.71065866     0.35300
H1360       H  0.56245569  0.87247659  0.69973824     0.40400
H1361       H  0.93660957  0.01532630  0.72615312     0.40100
H1362       H  0.91674166  0.97935196  0.71444578     0.34900
C1363       C  0.47409933  0.58744989  0.71038978    -0.26800
C1364       C  0.50311776  0.58711307  0.69404040    -0.14900
C1365       C  0.03290006  0.57314633  0.70025543     0.35800
C1366       C  0.02904318  0.54646692  0.71844451    -0.26200
C1367       C  0.49595351  0.53178639  0.73083491    -0.15500
C1368       C  0.46970536  0.56017744  0.72837124     0.36900
N1369       N  0.43732955  0.56099928  0.74248720    -0.89700
H1370       H  0.45351319  0.60807840  0.70827625     0.18000
H1371       H  0.04919629  0.52524638  0.71925116     0.18000
N1372       N  0.06282134  0.57172544  0.68358417    -0.88800
H1373       H  0.41598121  0.55994816  0.72962924     0.35300
H1374       H  0.43530895  0.58573283  0.75203885     0.40400
H1375       H  0.06252528  0.54722395  0.67366539     0.40100
H1376       H  0.08599328  0.57219104  0.69472934     0.34900
C1377       C  0.53520662  0.92505653  0.42261988    -0.26800
C1378       C  0.50584808  0.92027280  0.43849083    -0.14900
C1379       C  0.98889893  0.91150514  0.43675085     0.35800
C1380       C  0.99187318  0.89376380  0.41310001    -0.26200
C1381       C  0.51039824  0.88480275  0.39073796    -0.15500
C1382       C  0.53767885  0.90775748  0.39899379     0.36900
N1383       N  0.56839667  0.91380817  0.38389454    -0.89700
H1384       H  0.55590520  0.94350787  0.42811096     0.18000
H1385       H  0.97157604  0.87517041  0.40705939     0.18000
N1386       N  0.95981851  0.90391951  0.45325452    -0.88800
H1387       H  0.56013382  0.92622951  0.36716565     0.35300
H1388       H  0.58036141  0.88895728  0.37937734     0.40400
H1389       H  0.97062783  0.89252053  0.46973673     0.40100
H1390       H  0.94332609  0.88464635  0.44501778     0.34900
C1391       C  0.99349624  0.89116993  0.58648878    -0.26800
C1392       C  0.51242484  0.89095786  0.60376214    -0.14900
C1393       C  0.53280445  0.92151642  0.59906642     0.35800
C1394       C  0.53212335  0.93654911  0.57476420    -0.26200
C1395       C  0.01461637  0.93757479  0.55853758    -0.15500
C1396       C  0.99275988  0.90782697  0.56264159     0.36900
N1397       N  0.96946694  0.89517573  0.54280367    -0.89700
H1398       H  0.97618220  0.86888525  0.58994953     0.18000
H1399       H  0.54665600  0.96086021  0.57146043     0.18000
N1400       N  0.55390730  0.93731702  0.61902654    -0.88800
H1401       H  0.95498225  0.87332544  0.54898402     0.35300
H1402       H  0.98540274  0.88570832  0.52787660     0.40400
H1403       H  0.56700199  0.95985741  0.61249182     0.40100
H1404       H  0.57370151  0.91850801  0.62409452     0.34900
C1405       C  0.96120561  0.59666235  0.40176538    -0.26800
C1406       C  0.48994614  0.60147556  0.39519128    -0.14900
C1407       C  0.51632114  0.60735101  0.41389574     0.35800
C1408       C  0.51476445  0.58881314  0.43696353    -0.26200
C1409       C  0.48725825  0.56478557  0.44172636    -0.15500
C1410       C  0.95952498  0.57816543  0.42478962     0.36900
N1411       N  0.93100534  0.55383882  0.42891941    -0.89700
H1412       H  0.94089164  0.59247605  0.38733672     0.18000
H1413       H  0.53593525  0.59202756  0.45087055     0.18000
N1414       N  0.54542062  0.63063627  0.40896136    -0.88800
H1415       H  0.91450313  0.55219303  0.41286256     0.35300
H1416       H  0.91522020  0.56488824  0.44340576     0.40400
H1417       H  0.56032906  0.61905428  0.39419800     0.40100
H1418       H  0.56243341  0.63214207  0.42475113     0.34900
C1419       C  0.51958682  0.58882395  0.56014271    -0.26800
C1420       C  0.99382122  0.57600391  0.55899312    -0.14900
C1421       C  0.97619350  0.56329359  0.58046037     0.35800
C1422       C  0.97934951  0.58157372  0.60373842    -0.26200
C1423       C  0.49743988  0.60232506  0.60244014    -0.15500
C1424       C  0.52238211  0.60807711  0.58319288     0.36900
N1425       N  0.55121290  0.63224335  0.58749695    -0.89700
H1426       H  0.53961999  0.59212295  0.54574001     0.18000
H1427       H  0.96586505  0.57126903  0.62013884     0.18000
N1428       N  0.95662400  0.53070516  0.57901362    -0.88800
H1429       H  0.56715937  0.63351152  0.57138187     0.35300
H1430       H  0.56730206  0.62161711  0.60199378     0.40400
H1431       H  0.93052542  0.53645250  0.58473054     0.40100
H1432       H  0.96803603  0.51253549  0.59187559     0.34900
loop_ 
_geom_bond_atom_site_label_1 
_geom_bond_atom_site_label_2 
_geom_bond_distance 
_geom_bond_site_symmetry_2 
_ccdc_geom_bond_type 
O1           Ni9   1.914       .  S
O1          C727   1.280       .  A
O2         Ni367   1.925   1_545  S
O2           C12   1.283       .  A
O3         Ni367   1.919   1_545  S
O3          C729   1.282       .  A
O4           Ni9   1.920       .  S
O4           C14   1.282       .  A
O5         Ni368   1.920       .  S
O5          C730   1.282       .  A
O6          Ni10   1.918       .  S
O6           C13   1.282   1_455  A
O7          Ni10   1.907       .  S
O7          C728   1.279   1_455  A
O8         Ni368   1.919       .  S
O8           C11   1.283       .  A
Ni9         O360   1.915       .  S
Ni9         O361   1.919       .  S
Ni9       Ni1084   2.385       .  S
Ni10        O363   1.920   1_545  S
Ni10        O366   1.914   1_545  S
Ni10      Ni1083   2.388   1_455  S
C11         O717   1.280   1_455  A
C11         C304   1.487       .  S
C12         O723   1.279       .  A
C12         C346   1.477       .  S
C13         O719   1.280       .  A
C13         C335   1.484       .  S
C14         O721   1.281       .  A
C14         C321   1.478       .  S
C15         C293   1.575       .  S
C15         C964   1.576       .  S
C15         C620   1.581   1_655  S
C15         C634   1.589   1_545  S
C16         C192   1.576       .  S
C16         C237   1.562       .  S
C16         C925   1.566   1_455  S
C16         C581   1.576   1_455  S
C17         C178   1.490       .  S
C17          N18   1.368       .  A
C17          N22   1.359       .  A
N18          C19   1.368       .  A
C19         C195   1.483       .  S
C19          N20   1.359       .  A
N20          C21   1.352       .  A
C21         C307   1.470       .  S
C21          N22   1.349       .  A
O23         Ni31   1.915   1_456  S
O23          C33   1.281       .  A
O24        Ni747   1.912       .  S
O24          C34   1.280       .  A
O25        Ni747   1.924   1_556  S
O25          C35   1.283       .  A
O26         Ni31   1.921   1_455  S
O26          C36   1.281       .  A
O27         Ni32   1.911       .  S
O27         C394   1.280       .  A
O28        Ni748   1.916   1_556  S
O28         C393   1.281   1_545  A
O29        Ni748   1.927       .  S
O29         C392   1.284   1_545  A
O30         Ni32   1.931   1_556  S
O30         C391   1.285       .  A
Ni31        O740   1.919       .  S
Ni31        O741   1.915   1_554  S
Ni31       Ni390   2.388   1_554  S
Ni32        O744   1.911   1_454  S
Ni32        O745   1.924   1_455  S
Ni32       Ni389   2.389   1_545  S
C33         O388   1.281       .  A
C33         C150   1.477       .  S
C34         O387   1.282       .  A
C34         C136   1.482       .  S
C35         O386   1.281       .  A
C35         C122   1.485       .  S
C36         O385   1.281       .  A
C36         C164   1.478       .  S
C37         C108   1.475       .  S
C37          N38   1.363       .  A
C37          N42   1.360       .  A
N38          C39   1.360       .  A
C39         C206   1.486       .  S
C39          N40   1.358       .  A
N40          C41   1.351       .  A
C41         C139   1.473       .  S
C41          N42   1.352       .  A
C43         C181   1.490   1_655  S
C43          N44   1.368       .  A
C43          N48   1.363       .  A
N44          C45   1.366       .  A
C45         C220   1.498       .  S
C45          N46   1.354       .  A
N46          C47   1.350       .  A
C47         C332   1.477       .  S
C47          N48   1.353       .  A
C49         C469   1.481       .  S
C49          N50   1.361       .  A
C49          N54   1.362       .  A
N50          C51   1.356       .  A
C51         C525   1.485       .  S
C51          N52   1.355       .  A
N52          C53   1.359       .  A
C53         C234   1.476       .  S
C53          N54   1.358       .  A
C55          C94   1.491       .  S
C55          N56   1.368       .  A
C55          N60   1.362       .  A
N56          C57   1.366       .  A
C57         C251   1.483       .  S
C57          N58   1.355   1_545  A
N58          C59   1.353       .  A
C59         C125   1.477       .  S
C59          N60   1.357   1_565  A
C61          C80   1.492       .  S
C61          N62   1.363       .  A
C61          N66   1.365       .  A
N62          C63   1.362       .  A
C63         C279   1.475       .  S
C63          N64   1.355       .  A
N64          C65   1.354       .  A
C65         C318   1.483       .  S
C65          N66   1.358       .  A
C67          C83   1.490       .  S
C67          N68   1.369       .  A
C67          N72   1.361   1_455  A
N68          C69   1.366       .  A
C69         C290   1.479       .  S
C69          N70   1.353   1_455  A
N70          C71   1.352       .  A
C71         C349   1.484       .  S
C71          N72   1.355       .  A
C73          C97   1.494       .  S
C73          N74   1.368       .  A
C73          N78   1.363       .  A
N74          C75   1.366       .  A
C75         C265   1.484       .  S
C75          N76   1.354       .  A
N76          C77   1.353       .  A
C77         C153   1.477       .  S
C77          N78   1.357       .  A
C79          C80   1.402       .  A
C79          C84   1.399       .  A
C79          H86   1.084       .  S
C80         C797   1.421   1_455  A
C81          C82   1.410       .  A
C81         C796   1.422       .  A
C81          N88   1.431       .  S
C82         C799   1.407       .  A
C82          H87   1.084       .  S
C83          C84   1.412       .  A
C83         C798   1.406   1_455  A
C84          N85   1.431       .  S
N85          H89   1.046       .  S
N85          H90   1.046       .  S
N88          H91   1.045       .  S
N88          H92   1.045       .  S
C93          C98   1.409       .  A
C93         C452   1.407       .  A
C93         H100   1.084       .  S
C94          C95   1.418       .  A
C94         C451   1.407   1_545  A
C95          C96   1.399       .  A
C95         N102   1.433       .  S
C96         C455   1.404       .  A
C96         H101   1.084       .  S
C97          C98   1.418       .  A
C97         C454   1.404       .  A
C98          N99   1.432       .  S
N99         H103   1.045       .  S
N99         H104   1.046       .  S
N102        H105   1.046       .  S
N102        H106   1.043       .  S
C107        C112   1.402       .  A
C107        C466   1.403       .  A
C107        H114   1.084       .  S
C108        C109   1.411       .  A
C108        C465   1.402       .  A
C109        C110   1.407       .  A
C109        N116   1.438       .  S
C110        C111   1.406       .  A
C110        H115   1.083       .  S
C111        C407   1.481       .  S
C111        C470   1.413       .  A
C112        C469   1.412       .  A
C112        N113   1.438       .  S
N113        H117   1.046       .  S
N113        H118   1.046       .  S
N116        H119   1.046       .  S
N116        H120   1.046       .  S
C121        C126   1.405       .  A
C121        C480   1.408   1_545  A
C121        H128   1.084       .  S
C122        C123   1.415       .  A
C122        C479   1.406       .  A
C123        C124   1.407       .  A
C123        N130   1.438       .  S
C124        C483   1.403       .  A
C124        H129   1.084       .  S
C125        C126   1.406   1_565  A
C125        C482   1.402       .  A
C126        N127   1.432       .  S
N127        H131   1.046       .  S
N127        H132   1.046       .  S
N130        H133   1.045       .  S
N130        H134   1.046       .  S
C135        C140   1.403       .  A
C135        C494   1.405   1_545  A
C135        H142   1.084       .  S
C136        C137   1.416       .  A
C136        C493   1.405       .  A
C137        C138   1.404       .  A
C137        N144   1.438       .  S
C138        C139   1.401       .  A
C138        H143   1.084       .  S
C139        C498   1.412       .  A
C140        C497   1.415   1_545  A
C140        N141   1.432       .  S
N141        H145   1.045       .  S
N141        H146   1.045       .  S
N144        H147   1.045       .  S
N144        H148   1.046       .  S
C149        C150   1.402       .  A
C149        C154   1.402       .  A
C149        H156   1.084       .  S
C150        C509   1.411       .  A
C151        C152   1.409       .  A
C151        C508   1.411       .  A
C151        N158   1.437       .  S
C152        C511   1.403       .  A
C152        H157   1.084       .  S
C153        C154   1.411       .  A
C153        C510   1.404       .  A
C154        N155   1.437       .  S
N155        H160   1.045       .  S
N155        H517   1.046       .  S
N158        H161   1.046       .  S
N158        H520   1.046       .  S
H159        N513   1.046       .  S
H162        N516   1.046       .  S
C163        C164   1.404       .  A
C163        C168   1.404       .  A
C163        H170   1.084       .  S
C164        C523   1.414       .  A
C165        C166   1.404       .  A
C165        C522   1.410   1_565  A
C165        N172   1.432       .  S
C166        C525   1.408   1_565  A
C166        H171   1.084       .  S
C167        C409   1.477       .  S
C167        C168   1.409       .  A
C167        C524   1.404       .  A
C168        N169   1.438       .  S
N169        H173   1.046       .  S
N169        H174   1.046       .  S
N172        H175   1.046       .  S
N172        H534   1.045       .  S
H176        N530   1.045       .  S
C177        C178   1.405       .  A
C177        C182   1.399       .  A
C177        H184   1.084       .  S
C178        C895   1.413   1_455  A
C179        C180   1.413       .  A
C179        C894   1.414       .  A
C179        N186   1.437       .  S
C180        C897   1.406       .  A
C180        H185   1.083       .  S
C181        C182   1.414       .  A
C181        C896   1.409   1_455  A
C182        N183   1.439       .  S
N183        H187   1.046       .  S
N183        H188   1.046       .  S
N186        H189   1.046       .  S
N186        H190   1.046       .  S
C191        C192   1.416       .  A
C191        C196   1.394       .  A
C191        H198   1.084       .  S
C192        C909   1.431   1_455  A
C193        C194   1.414       .  A
C193        C908   1.429       .  A
C193        N200   1.430       .  S
C194        C911   1.402       .  A
C194        H199   1.084       .  S
C195        C196   1.403       .  A
C195        C910   1.402   1_455  A
C196        N197   1.432       .  S
N197        H201   1.046       .  S
N197        H202   1.046       .  S
N200        H203   1.046       .  S
N200        H204   1.046       .  S
C205        C210   1.391       .  A
C205        C564   1.396       .  A
C205        H212   1.084       .  S
C206        C207   1.411       .  A
C206        C563   1.396       .  A
C207        C208   1.415       .  A
C207        N214   1.437       .  S
C208        C209   1.416       .  A
C208        H213   1.081       .  S
C209        C732   1.565       .  S
C209        C568   1.431       .  A
C210        C567   1.432   1_545  A
C210        N211   1.434       .  S
N211        H215   1.046       .  S
N211        H932   1.046       .  S
N214        H217   1.045       .  S
N214        H576   1.046       .  S
H216        N927   1.046       .  S
H218        N572   1.046       .  S
C219        C220   1.407       .  A
C219        C224   1.414   1_655  A
C219        H226   1.083   1_655  S
C220        C937   1.419       .  A
C221        C222   1.389       .  A
C221        C936   1.421       .  A
C221        N228   1.434       .  S
C222        C939   1.415       .  A
C222        H227   1.081   1_545  S
C223        C374   1.577   1_655  S
C223        C224   1.424   1_655  A
C223        C938   1.416       .  A
C224        N225   1.429       .  S
N225        H229   1.046       .  S
N225        H230   1.045   1_455  S
N228        H231   1.045       .  S
N228        H232   1.044       .  S
C233        C238   1.394       .  A
C233        C592   1.393       .  A
C233        H240   1.085       .  S
C234        C235   1.417       .  A
C234        C591   1.394   1_545  A
C235        C236   1.410       .  A
C235        N242   1.437       .  S
C236        C595   1.413       .  A
C236        H241   1.079       .  S
C237        C238   1.426       .  A
C237        C594   1.415       .  A
C238        N239   1.430       .  S
N239        H243   1.046       .  S
N239        H960   1.046       .  S
N242        H245   1.042       .  S
N242        H246   1.045       .  S
H244        N955   1.046       .  S
C247        C248   1.421   1_565  A
C247        C252   1.409       .  A
C247        H254   1.078       .  S
C248        C731   1.577   1_545  S
C248        C607   1.427       .  A
C249        C250   1.404       .  A
C249        C606   1.427       .  A
C249        N256   1.432       .  S
C250        C609   1.399       .  A
C250        H255   1.084       .  S
C251        C252   1.413   1_545  A
C251        C608   1.399       .  A
C252        N253   1.438       .  S
N253        H257   1.046       .  S
N253        H258   1.042       .  S
N256        H260   1.046       .  S
N256        H975   1.045       .  S
H259        N972   1.045       .  S
C261        C262   1.416       .  A
C261        C266   1.398       .  A
C261        H268   1.084       .  S
C262        C373   1.581   1_455  S
C262        C621   1.436       .  A
C263        C264   1.409       .  A
C263        C620   1.435       .  A
C263        N270   1.431       .  S
C264        C623   1.397       .  A
C264        H269   1.084       .  S
C265        C266   1.412       .  A
C265        C622   1.397       .  A
C266        N267   1.432       .  S
N267        H271   1.042       .  S
N267        H272   1.046       .  S
N270        H273   1.046       .  S
N270        H274   1.046       .  S
C275        C276   1.426   1_455  A
C275        C280   1.404       .  A
C275        H282   1.077       .  S
C276        C373   1.587       .  S
C276        C993   1.441       .  A
C277        C278   1.404       .  A
C277        C992   1.441       .  A
C277        N284   1.438       .  S
C278        C995   1.396       .  A
C278        H283   1.085       .  S
C279        C280   1.408       .  A
C279        C994   1.393   1_455  A
C280        N281   1.440       .  S
N281        H285   1.046       .  S
N281        H286   1.042       .  S
N284        H287   1.032       .  S
N284        H288   1.046       .  S
C289        C290   1.396   1_655  A
C289        C294   1.411       .  A
C289        H296   1.084       .  S
C290       C1007   1.403       .  A
C291        C292   1.400       .  A
C291       C1006   1.401       .  A
C291        N298   1.433       .  S
C292       C1009   1.419       .  A
C292        H297   1.083       .  S
C293        C294   1.437       .  A
C293       C1008   1.418   1_655  A
C294        N295   1.430       .  S
N295        H299   1.046       .  S
N295        H300   1.045       .  S
N298        H301   1.046       .  S
N298        H302   1.046       .  S
C303        C304   1.407       .  A
C303        C308   1.397       .  A
C303        H310   1.083       .  S
C304       C1021   1.418   1_455  A
C305        C306   1.409       .  A
C305       C1020   1.418       .  A
C305        N312   1.438       .  S
C306       C1023   1.401       .  A
C306        H311   1.084       .  S
C307        C308   1.409       .  A
C307       C1022   1.399   1_455  A
C308        N309   1.432       .  S
N309        H313   1.043       .  S
N309        H314   1.046       .  S
N312        H315   1.046       .  S
N312        H316   1.046       .  S
C317        C322   1.409       .  A
C317       C1034   1.405       .  A
C317        H324   1.084       .  S
C318        C319   1.413       .  A
C318       C1033   1.405   1_455  A
C319        C320   1.404       .  A
C319        N326   1.438       .  S
C320       C1037   1.403       .  A
C320        H325   1.084       .  S
C321        C322   1.411       .  A
C321       C1036   1.403       .  A
C322        N323   1.437       .  S
N323        H327   1.046       .  S
N323        H328   1.046       .  S
N326        H329   1.046       .  S
N326        H330   1.046       .  S
C331        C336   1.404       .  A
C331       C1048   1.404       .  A
C331        H338   1.084       .  S
C332        C333   1.407   1_655  A
C332       C1047   1.401       .  A
C333        C334   1.405       .  A
C333        N340   1.431       .  S
C334        C335   1.406   1_455  A
C334        H339   1.084       .  S
C335       C1052   1.416       .  A
C336       C1051   1.413       .  A
C336        N337   1.438       .  S
N337        H341   1.046       .  S
N337        H342   1.045       .  S
N340        H343   1.046       .  S
N340        H344   1.046       .  S
C345        C350   1.405       .  A
C345       C1062   1.400   1_455  A
C345        H352   1.084       .  S
C346        C347   1.409       .  A
C346       C1061   1.403       .  A
C347        C348   1.403       .  A
C347        N354   1.433       .  S
C348       C1065   1.405       .  A
C348        H353   1.084       .  S
C349        C350   1.416   1_655  A
C349       C1064   1.406       .  A
C350        N351   1.435       .  S
N351        H355   1.046       .  S
N351        H356   1.045       .  S
N354        H357   1.046       .  S
N354        H358   1.046   1_545  S
O359       Ni367   1.923       .  S
O359       C1085   1.282       .  A
O360        C370   1.281       .  A
O361       C1087   1.282       .  A
O362       Ni367   1.914       .  S
O362        C372   1.280       .  A
O363       C1088   1.283       .  A
O364       Ni368   1.918       .  S
O364        C371   1.282   1_455  A
O365       Ni368   1.912       .  S
O365       C1086   1.280   1_455  A
O366        C369   1.281       .  A
Ni367      Ni726   2.387       .  S
Ni368      Ni725   2.386   1_455  S
C369       O1075   1.281   1_455  A
C369        C662   1.482       .  S
C370       O1081   1.281       .  A
C370        C704   1.484       .  S
C371       O1077   1.282       .  A
C371        C693   1.488       .  S
C372       O1079   1.281       .  A
C372        C679   1.475       .  S
C373       C1322   1.575       .  S
C373        C651   1.572   1_655  S
C374        C550   1.573   1_545  S
C374       C1283   1.568   1_455  S
C374        C595   1.563       .  S
C375        C536   1.482       .  S
C375        N376   1.364       .  A
C375        N380   1.360       .  A
N376        C377   1.363       .  A
C377        C553   1.482       .  S
C377        N378   1.359       .  A
N378        C379   1.354       .  A
C379        C665   1.473       .  S
C379        N380   1.353       .  A
O381       Ni389   1.900   1_556  S
O381        C391   1.278   1_565  A
O382      Ni1105   1.908       .  S
O382        C392   1.279       .  A
O383      Ni1105   1.923   1_556  S
O383        C393   1.283       .  A
O384       Ni389   1.926       .  S
O384        C394   1.282   1_565  A
O385       Ni390   1.914   1_454  S
O386      Ni1106   1.913   1_556  S
O387      Ni1106   1.917       .  S
O388       Ni390   1.919   1_455  S
Ni389      O1098   1.902   1_455  S
Ni389      O1099   1.923   1_454  S
Ni390      O1102   1.917       .  S
Ni390      O1103   1.913   1_556  S
C391        C508   1.480       .  S
C392        C494   1.481       .  S
C393        C480   1.486       .  S
C394        C522   1.476       .  S
C395        C466   1.479       .  S
C395        N396   1.365       .  A
C395        N400   1.362       .  A
N396        C397   1.361   1_545  A
C397        C564   1.487   1_565  S
C397        N398   1.357       .  A
N398        C399   1.351       .  A
C399        C497   1.477       .  S
C399        N400   1.354   1_565  A
C401        C539   1.481       .  S
C401        N402   1.368   1_455  A
C401        N406   1.361   1_455  A
N402        C403   1.367       .  A
C403        C578   1.498       .  S
C403        N404   1.355       .  A
N404        C405   1.350       .  A
C405        C690   1.477       .  S
C405        N406   1.352       .  A
C407        N408   1.361       .  A
C407        N412   1.363       .  A
N408        C409   1.354       .  A
C409        N410   1.354       .  A
N410        C411   1.359       .  A
C411        C592   1.475       .  S
C411        N412   1.358       .  A
C413        C452   1.494       .  S
C413        N414   1.367       .  A
C413        N418   1.362       .  A
N414        C415   1.366       .  A
C415        C609   1.481       .  S
C415        N416   1.356       .  A
N416        C417   1.354       .  A
C417        C483   1.479       .  S
C417        N418   1.358       .  A
C419        C438   1.495       .  S
C419        N420   1.365       .  A
C419        N424   1.361       .  A
N420        C421   1.364       .  A
C421        C637   1.475       .  S
C421        N422   1.355       .  A
N422        C423   1.353       .  A
C423        C676   1.474       .  S
C423        N424   1.353       .  A
C425        C441   1.491       .  S
C425        N426   1.366       .  A
C425        N430   1.360       .  A
N426        C427   1.364       .  A
C427        C648   1.475       .  S
C427        N428   1.356       .  A
N428        C429   1.354       .  A
C429        C707   1.481       .  S
C429        N430   1.354       .  A
C431        C455   1.490       .  S
C431        N432   1.367       .  A
C431        N436   1.361       .  A
N432        C433   1.366       .  A
C433        C623   1.483       .  S
C433        N434   1.355       .  A
N434        C435   1.353       .  A
C435        C511   1.471       .  S
C435        N436   1.354       .  A
C437        C438   1.405       .  A
C437        C442   1.396       .  A
C437        H444   1.084       .  S
C438       C1155   1.421   1_455  A
C439       C1154   1.420       .  A
C439        C440   1.408       .  A
C439        N446   1.432       .  S
C440       C1157   1.406       .  A
C440        H445   1.084       .  S
C441       C1156   1.407   1_455  A
C441        C442   1.412       .  A
C442        N443   1.432       .  S
N443        H447   1.046       .  S
N443        H448   1.046       .  S
N446        H449   1.045       .  S
N446        H450   1.045       .  S
C451        C456   1.408       .  A
C451        H458   1.084       .  S
C452        C453   1.418       .  A
C453        C454   1.400       .  A
C453        N460   1.432       .  S
C454        H459   1.084       .  S
C455        C456   1.417   1_545  A
C456        N457   1.432       .  S
N457        H461   1.045       .  S
N457        H462   1.046       .  S
N460        H463   1.046       .  S
N460        H464   1.043       .  S
C465        C470   1.400       .  A
C465        H472   1.084       .  S
C466        C467   1.412       .  A
C467        C468   1.407       .  A
C467        N474   1.438   1_545  S
C468        C469   1.405       .  A
C468        H473   1.083   1_545  S
C470        N471   1.438       .  S
N471        H475   1.046       .  S
N471        H476   1.046       .  S
N474        H477   1.046       .  S
N474        H478   1.046       .  S
C479        C484   1.407       .  A
C479        H486   1.084       .  S
C480        C481   1.415       .  A
C481        C482   1.406       .  A
C481        N488   1.438       .  S
C482        H487   1.084       .  S
C483        C484   1.409       .  A
C484        N485   1.437       .  S
N485        H489   1.046       .  S
N485        H490   1.046       .  S
N488        H491   1.045       .  S
N488        H492   1.046       .  S
C493        C498   1.398       .  A
C493        H500   1.084       .  S
C494        C495   1.412       .  A
C495        C496   1.400       .  A
C495        N502   1.433       .  S
C496        C497   1.401       .  A
C496        H501   1.084       .  S
C498        N499   1.432       .  S
N499        H503   1.046       .  S
N499        H504   1.045       .  S
N502        H505   1.046       .  S
N502        H506   1.046       .  S
C507        C508   1.406   1_565  A
C507        C512   1.400       .  A
C507        H514   1.084       .  S
C509        C510   1.409       .  A
C509        N516   1.437       .  S
C510        H515   1.084       .  S
C511        C512   1.406   1_545  A
C512        N513   1.438       .  S
N513        H518   1.046       .  S
N516        H519   1.046       .  S
C521        C522   1.403       .  A
C521        C526   1.404       .  A
C521        H528   1.084       .  S
C523        C524   1.402       .  A
C523        N530   1.432       .  S
C524        H529   1.084       .  S
C525        C526   1.413       .  A
C526        N527   1.438       .  S
N527        H531   1.046       .  S
N527        H532   1.046       .  S
N530        H533   1.046       .  S
C535        C536   1.403       .  A
C535        C540   1.401       .  A
C535        H542   1.084       .  S
C536       C1253   1.413   1_455  A
C537       C1252   1.413       .  A
C537        C538   1.412       .  A
C537        N544   1.437       .  S
C538       C1255   1.406       .  A
C538        H543   1.083       .  S
C539       C1254   1.405   1_455  A
C539        C540   1.411       .  A
C540        N541   1.438       .  S
N541        H545   1.046       .  S
N541        H546   1.046       .  S
N544        H547   1.046       .  S
N544        H548   1.046       .  S
C549        C550   1.416       .  A
C549        C554   1.391       .  A
C549        H556   1.084       .  S
C550       C1267   1.430   1_455  A
C551       C1266   1.430       .  A
C551        C552   1.414       .  A
C551        N558   1.430       .  S
C552       C1269   1.401       .  A
C552        H557   1.084       .  S
C553       C1268   1.403   1_455  A
C553        C554   1.402       .  A
C554        N555   1.432       .  S
N555        H559   1.046       .  S
N555        H560   1.046       .  S
N558        H561   1.046       .  S
N558        H562   1.046       .  S
C563        C568   1.391       .  A
C563        H570   1.084       .  S
C564        C565   1.411   1_545  A
C565        C566   1.417       .  A
C565        N572   1.437       .  S
C566        C567   1.418       .  A
C566        H571   1.082       .  S
C567       C1090   1.567       .  S
C568        N569   1.434       .  S
N569        H573   1.046       .  S
N569       H1290   1.046       .  S
N572        H575   1.045   1_565  S
H574       N1285   1.046       .  S
C577        C578   1.406   1_455  A
C577        C582   1.415       .  A
C577        H584   1.083       .  S
C578       C1295   1.418       .  A
C579       C1294   1.417       .  A
C579        C580   1.390       .  A
C579        N586   1.435       .  S
C580       C1297   1.417       .  A
C580        H585   1.082       .  S
C581       C1296   1.416       .  A
C581        C582   1.426   1_655  A
C582        N583   1.429       .  S
N583        H587   1.046       .  S
N583        H588   1.046   1_455  S
N586        H589   1.046       .  S
N586        H590   1.044       .  S
C591        C596   1.393       .  A
C591        H598   1.085       .  S
C592        C593   1.412       .  A
C593        C594   1.408       .  A
C593        N600   1.431       .  S
C594        H599   1.080       .  S
C595        C596   1.424   1_545  A
C596        N597   1.430       .  S
N597        H601   1.046       .  S
N597       H1318   1.046       .  S
N600        H603   1.045       .  S
N600        H604   1.045       .  S
H602       N1313   1.046       .  S
C605        C606   1.421       .  A
C605        C610   1.407       .  A
C605        H612   1.077       .  S
C606       C1089   1.577       .  S
C607        C608   1.402       .  A
C607        N614   1.433       .  S
C608        H613   1.085       .  S
C609        C610   1.412       .  A
C610        N611   1.439       .  S
N611        H615   1.046       .  S
N611        H616   1.043       .  S
N614       H1333   1.045       .  S
N614        H618   1.046       .  S
H617       N1330   1.045       .  S
C619        C620   1.418   1_565  A
C619        C624   1.399       .  A
C619        H626   1.084       .  S
C621        C622   1.410       .  A
C621        N628   1.432       .  S
C622        H627   1.084       .  S
C623        C624   1.411   1_545  A
C624        N625   1.433       .  S
N625        H629   1.044       .  S
N625        H630   1.046       .  S
N628        H631   1.046       .  S
N628        H632   1.046       .  S
C633        C634   1.427   1_455  A
C633        C638   1.403       .  A
C633        H640   1.077       .  S
C634       C1351   1.440       .  A
C635       C1350   1.441       .  A
C635        C636   1.404       .  A
C635        N642   1.438       .  S
C636       C1353   1.396       .  A
C636        H641   1.085       .  S
C637       C1352   1.395   1_455  A
C637        C638   1.407       .  A
C638        N639   1.440       .  S
N639        H643   1.046       .  S
N639        H644   1.042       .  S
N642        H645   1.032   1_565  S
N642        H646   1.046       .  S
C647        C648   1.395   1_655  A
C647        C652   1.410       .  A
C647        H654   1.084       .  S
C648       C1365   1.400       .  A
C649       C1364   1.401       .  A
C649        C650   1.401       .  A
C649        N656   1.433       .  S
C650       C1367   1.419       .  A
C650        H655   1.083       .  S
C651       C1366   1.419       .  A
C651        C652   1.436   1_455  A
C652        N653   1.431       .  S
N653        H657   1.046       .  S
N653        H658   1.045       .  S
N656        H659   1.046       .  S
N656        H660   1.046       .  S
C661        C662   1.405       .  A
C661        C666   1.396       .  A
C661        H668   1.084       .  S
C662       C1379   1.415   1_455  A
C663       C1378   1.416       .  A
C663        C664   1.410       .  A
C663        N670   1.437       .  S
C664       C1381   1.403       .  A
C664        H669   1.084       .  S
C665       C1380   1.401   1_455  A
C665        C666   1.411       .  A
C666        N667   1.431       .  S
N667        H671   1.041       .  S
N667        H672   1.046       .  S
N670        H673   1.046       .  S
N670        H674   1.046       .  S
C675       C1392   1.406       .  A
C675        C680   1.408       .  A
C675        H682   1.084       .  S
C676       C1391   1.403   1_455  A
C676        C677   1.407       .  A
C677        C678   1.399       .  A
C677        N684   1.433       .  S
C678       C1395   1.403       .  A
C678        H683   1.084       .  S
C679       C1394   1.403       .  A
C679        C680   1.409       .  A
C680        N681   1.437       .  S
N681        H685   1.046       .  S
N681        H686   1.046       .  S
N684        H687   1.046       .  S
N684        H688   1.046       .  S
C689       C1406   1.401       .  A
C689        C694   1.403       .  A
C689        H696   1.084       .  S
C690       C1405   1.401       .  A
C690        C691   1.409   1_655  A
C691        C692   1.408       .  A
C691        N698   1.438       .  S
C692        C693   1.408   1_455  A
C692        H697   1.084       .  S
C693       C1410   1.416       .  A
C694       C1409   1.415       .  A
C694        N695   1.438       .  S
N695        H699   1.046       .  S
N695        H700   1.046       .  S
N698        H701   1.046       .  S
N698        H702   1.046       .  S
C703       C1420   1.400   1_455  A
C703        C708   1.406       .  A
C703        H710   1.084       .  S
C704       C1419   1.407       .  A
C704        C705   1.416       .  A
C705        C706   1.403       .  A
C705        N712   1.438       .  S
C706       C1423   1.400       .  A
C706        H711   1.084       .  S
C707       C1422   1.404   1_455  A
C707        C708   1.415       .  A
C708        N709   1.436       .  S
N709        H713   1.046       .  S
N709        H714   1.046       .  S
N712        H715   1.046       .  S
N712        H716   1.046       .  S
O717       Ni725   1.911       .  S
O718      Ni1083   1.915       .  S
O718        C728   1.280       .  A
O719      Ni1083   1.913       .  S
O720       Ni725   1.919       .  S
O720        C730   1.281   1_655  A
O721      Ni1084   1.914       .  S
O722       Ni726   1.913   1_545  S
O722        C729   1.281       .  A
O723       Ni726   1.907   1_545  S
O724      Ni1084   1.919       .  S
O724        C727   1.283       .  A
Ni725      O1076   1.913       .  S
Ni725      O1077   1.921       .  S
Ni726      O1079   1.916       .  S
Ni726      O1082   1.915       .  S
C727       C1020   1.487       .  S
C728       C1062   1.466       .  S
C729       C1051   1.481       .  S
C730       C1037   1.481       .  S
C731       C1336   1.581       .  S
C731       C1350   1.591       .  S
C731       C1009   1.574   1_565  S
C732        C908   1.571       .  S
C732       C1297   1.573       .  S
C732        C953   1.561       .  S
C733        C894   1.485       .  S
C733        N734   1.365       .  A
C733        N738   1.361       .  A
N734        C735   1.363       .  A
C735        C911   1.478       .  S
C735        N736   1.358       .  A
N736        C737   1.353       .  A
C737       C1023   1.474       .  S
C737        N738   1.353       .  A
O739       Ni747   1.908   1_556  S
O739        C749   1.280       .  A
O740        C750   1.282       .  A
O741        C751   1.280       .  A
O742       Ni747   1.925       .  S
O742        C752   1.282       .  A
O743       Ni748   1.916       .  S
O743       C1110   1.280   1_545  A
O744       C1109   1.279   1_545  A
O745       C1108   1.283       .  A
O746       Ni748   1.927   1_556  S
O746       C1107   1.283   1_545  A
Ni747     Ni1106   2.386       .  S
Ni748     Ni1105   2.387   1_545  S
C749       O1104   1.282       .  A
C749        C866   1.482       .  S
C750       O1103   1.281       .  A
C750        C852   1.481       .  S
C751       O1102   1.282       .  A
C751        C838   1.480       .  S
C752       O1101   1.281       .  A
C752        C880   1.483       .  S
C753        C824   1.476       .  S
C753        N754   1.366       .  A
C753        N758   1.362       .  A
N754        C755   1.362       .  A
C755        C922   1.491       .  S
C755        N756   1.357       .  A
N756        C757   1.348       .  A
C757        C855   1.472       .  S
C757        N758   1.352       .  A
C759        C897   1.485       .  S
C759        N760   1.368       .  A
C759        N764   1.364       .  A
N760        C761   1.366       .  A
C761        C936   1.499       .  S
C761        N762   1.352       .  A
N762        C763   1.348       .  A
C763       C1048   1.480       .  S
C763        N764   1.354       .  A
C765       C1185   1.484       .  S
C765        N766   1.364       .  A
C765        N770   1.365       .  A
N766        C767   1.356   1_545  A
C767       C1241   1.485       .  S
C767        N768   1.351       .  A
N768        C769   1.356       .  A
C769        C950   1.476       .  S
C769        N770   1.359   1_565  A
C771        C810   1.498       .  S
C771        N772   1.369       .  A
C771        N776   1.363       .  A
N772        C773   1.366       .  A
C773        C967   1.480       .  S
C773        N774   1.353       .  A
N774        C775   1.351       .  A
C775        C841   1.478   1_545  S
C775        N776   1.357       .  A
C777        C796   1.501       .  S
C777        N778   1.367       .  A
C777        N782   1.363       .  A
N778        C779   1.366       .  A
C779        C995   1.482       .  S
C779        N780   1.356       .  A
N780        C781   1.354       .  A
C781       C1034   1.478       .  S
C781        N782   1.355       .  A
C783        C799   1.495       .  S
C783        N784   1.367       .  A
C783        N788   1.362       .  A
N784        C785   1.365       .  A
C785       C1006   1.477       .  S
C785        N786   1.356       .  A
N786        C787   1.354       .  A
C787       C1065   1.481       .  S
C787        N788   1.357       .  A
C789        C813   1.496       .  S
C789        N790   1.368       .  A
C789        N794   1.362       .  A
N790        C791   1.368       .  A
C791        C981   1.485       .  S
C791        N792   1.355       .  A
N792        C793   1.353       .  A
C793        C869   1.472       .  S
C793        N794   1.354       .  A
C795        C796   1.407       .  A
C795        C800   1.400       .  A
C795        H802   1.084       .  S
C797        C798   1.409       .  A
C797        N804   1.432       .  S
C798        H803   1.084       .  S
C799        C800   1.412       .  A
C800        N801   1.432       .  S
N801        H805   1.046       .  S
N801        H806   1.046       .  S
N804        H807   1.045       .  S
N804        H808   1.045       .  S
C809       C1168   1.409       .  A
C809        C814   1.411       .  A
C809        H816   1.084       .  S
C810       C1167   1.409   1_545  A
C810        C811   1.420       .  A
C811        C812   1.397       .  A
C811        N818   1.432       .  S
C812       C1171   1.404       .  A
C812        H817   1.084       .  S
C813       C1170   1.404       .  A
C813        C814   1.419       .  A
C814        N815   1.432       .  S
N815        H819   1.045       .  S
N815        H820   1.045       .  S
N818        H821   1.045       .  S
N818        H822   1.043       .  S
C823       C1182   1.404       .  A
C823        C828   1.400       .  A
C823        H830   1.083       .  S
C824       C1181   1.402       .  A
C824        C825   1.412       .  A
C825        C826   1.410       .  A
C825        N832   1.437       .  S
C826        C827   1.405       .  A
C826        H831   1.084       .  S
C827       C1123   1.475       .  S
C827       C1186   1.409       .  A
C828       C1185   1.412       .  A
C828        N829   1.438       .  S
N829        H833   1.046       .  S
N829        H834   1.046       .  S
N832        H835   1.046       .  S
N832        H836   1.046       .  S
C837       C1196   1.405   1_545  A
C837        C842   1.406       .  A
C837        H844   1.084       .  S
C838       C1195   1.405       .  A
C838        C839   1.414       .  A
C839        C840   1.404       .  A
C839        N846   1.438       .  S
C840       C1199   1.400       .  A
C840        H845   1.084       .  S
C841       C1198   1.404       .  A
C841        C842   1.409   1_565  A
C842        N843   1.431       .  S
N843        H847   1.046       .  S
N843        H848   1.046       .  S
N846        H849   1.045       .  S
N846        H850   1.046       .  S
C851       C1210   1.404   1_545  A
C851        C856   1.404       .  A
C851        H858   1.084       .  S
C852       C1209   1.404       .  A
C852        C853   1.414       .  A
C853        C854   1.409       .  A
C853        N860   1.437       .  S
C854        C855   1.402       .  A
C854        H859   1.084       .  S
C855       C1214   1.412       .  A
C856       C1213   1.416       .  A
C856        N857   1.432       .  S
N857        H861   1.045       .  S
N857        H862   1.045       .  S
N860        H863   1.046       .  S
N860        H864   1.046       .  S
C865        C866   1.406       .  A
C865        C870   1.401       .  A
C865        H872   1.084       .  S
C866       C1225   1.414       .  A
C867       C1224   1.412   1_545  A
C867        C868   1.411       .  A
C867        N874   1.437       .  S
C868       C1227   1.405   1_545  A
C868        H873   1.084       .  S
C869       C1226   1.403       .  A
C869        C870   1.406       .  A
C870        N871   1.438       .  S
N871       H1233   1.046       .  S
N871        H876   1.045       .  S
N874        H877   1.046       .  S
N874       H1236   1.046       .  S
H875       N1229   1.046       .  S
H878       N1232   1.046       .  S
C879        C880   1.404       .  A
C879        C884   1.403       .  A
C879        H886   1.084       .  S
C880       C1239   1.416       .  A
C881       C1238   1.415   1_545  A
C881        C882   1.404       .  A
C881        N888   1.432       .  S
C882       C1241   1.406   1_545  A
C882        H887   1.084       .  S
C883       C1125   1.478       .  S
C883       C1240   1.404       .  A
C883        C884   1.410       .  A
C884        N885   1.438       .  S
N885        H889   1.046       .  S
N885        H890   1.046       .  S
N888        H891   1.044       .  S
N888       H1250   1.046       .  S
H892       N1246   1.044       .  S
C893        C894   1.404       .  A
C893        C898   1.400       .  A
C893        H900   1.084       .  S
C895        C896   1.415       .  A
C895        N902   1.437       .  S
C896        H901   1.083       .  S
C897        C898   1.412       .  A
C898        N899   1.438       .  S
N899        H903   1.046       .  S
N899        H904   1.046       .  S
N902        H905   1.046       .  S
N902        H906   1.046       .  S
C907        C908   1.416       .  A
C907        C912   1.390       .  A
C907        H914   1.083       .  S
C909        C910   1.416       .  A
C909        N916   1.430       .  S
C910        H915   1.084       .  S
C911        C912   1.400       .  A
C912        N913   1.432       .  S
N913        H917   1.046       .  S
N913        H918   1.046       .  S
N916        H919   1.046       .  S
N916        H920   1.046       .  S
C921       C1280   1.397       .  A
C921        C926   1.392       .  A
C921        H928   1.084       .  S
C922       C1279   1.398       .  A
C922        C923   1.409       .  A
C923        C924   1.413       .  A
C923        N930   1.431       .  S
C924        C925   1.417       .  A
C924        H929   1.082       .  S
C925       C1284   1.432       .  A
C926       C1283   1.432       .  A
C926        N927   1.434   1_655  S
N927        H931   1.046       .  S
N930        H933   1.046       .  S
N930       H1292   1.045       .  S
H934       N1288   1.046       .  S
C935        C936   1.407       .  A
C935        C940   1.414       .  A
C935        H942   1.083       .  S
C937        C938   1.391       .  A
C937        N944   1.434       .  S
C938        H943   1.082       .  S
C939       C1090   1.574   1_545  S
C939        C940   1.424       .  A
C940        N941   1.429       .  S
N941        H945   1.046       .  S
N941        H946   1.046       .  S
N944        H947   1.046       .  S
N944        H948   1.044       .  S
C949       C1308   1.393       .  A
C949        C954   1.393       .  A
C949        H956   1.085       .  S
C950       C1307   1.394       .  A
C950        C951   1.412   1_565  A
C951        C952   1.408       .  A
C951        N958   1.432       .  S
C952       C1311   1.416   1_545  A
C952        H957   1.079       .  S
C953       C1310   1.414       .  A
C953        C954   1.426       .  A
C954        N955   1.431       .  S
N955        H959   1.046       .  S
N958        H961   1.045       .  S
N958        H962   1.045       .  S
C963        C964   1.422   1_565  A
C963        C968   1.407       .  A
C963        H970   1.077       .  S
C964       C1323   1.425       .  A
C965       C1322   1.423       .  A
C965        C966   1.403       .  A
C965        N972   1.432       .  S
C966       C1325   1.401       .  A
C966        H971   1.085       .  S
C967       C1324   1.400       .  A
C967        C968   1.412   1_545  A
C968        N969   1.439       .  S
N969        H973   1.046       .  S
N969        H974   1.042       .  S
N972        H976   1.046       .  S
C977        C978   1.418       .  A
C977        C982   1.400       .  A
C977        H984   1.084       .  S
C978       C1089   1.583       .  S
C978       C1337   1.436       .  A
C979       C1336   1.435   1_545  A
C979        C980   1.408       .  A
C979        N986   1.431       .  S
C980       C1339   1.397   1_545  A
C980        H985   1.084       .  S
C981       C1338   1.396       .  A
C981        C982   1.412       .  A
C982        N983   1.433       .  S
N983        H987   1.044       .  S
N983        H988   1.045       .  S
N986        H989   1.046       .  S
N986        H990   1.046       .  S
C991        C992   1.426       .  A
C991        C996   1.406       .  A
C991        H998   1.077       .  S
C992       C1089   1.592       .  S
C993        C994   1.399       .  A
C993       N1000   1.438       .  S
C994        H999   1.085       .  S
C995        C996   1.408       .  A
C996        N997   1.439       .  S
N997       H1001   1.046       .  S
N997       H1002   1.043       .  S
N1000      H1003   1.031       .  S
N1000      H1004   1.046       .  S
C1005      C1006   1.395       .  A
C1005      C1010   1.410       .  A
C1005      H1012   1.084       .  S
C1007      C1008   1.400       .  A
C1007      N1014   1.433       .  S
C1008      H1013   1.083       .  S
C1009      C1010   1.437       .  A
C1010      N1011   1.431       .  S
N1011      H1015   1.046       .  S
N1011      H1016   1.045       .  S
N1014      H1017   1.046       .  S
N1014      H1018   1.046       .  S
C1019      C1020   1.405       .  A
C1019      C1024   1.396       .  A
C1019      H1026   1.084       .  S
C1021      C1022   1.406       .  A
C1021      N1028   1.438       .  S
C1022      H1027   1.084       .  S
C1023      C1024   1.410       .  A
C1024      N1025   1.431       .  S
N1025      H1029   1.042       .  S
N1025      H1030   1.046       .  S
N1028      H1031   1.046       .  S
N1028      H1032   1.046       .  S
C1033      C1038   1.411       .  A
C1033      H1040   1.084       .  S
C1034      C1035   1.410       .  A
C1035      C1036   1.403       .  A
C1035      N1042   1.438       .  S
C1036      H1041   1.084       .  S
C1037      C1038   1.411   1_455  A
C1038      N1039   1.437       .  S
N1039      H1043   1.046       .  S
N1039      H1044   1.046       .  S
N1042      H1045   1.046       .  S
N1042      H1046   1.046       .  S
C1047      C1052   1.404       .  A
C1047      H1054   1.084       .  S
C1048      C1049   1.408       .  A
C1049      C1050   1.405       .  A
C1049      N1056   1.431       .  S
C1050      C1051   1.406       .  A
C1050      H1055   1.084       .  S
C1052      N1053   1.438       .  S
N1053      H1057   1.046       .  S
N1053      H1058   1.045       .  S
N1056      H1059   1.046       .  S
N1056      H1060   1.045       .  S
C1061      C1066   1.406       .  A
C1061      H1068   1.084       .  S
C1062      C1063   1.408       .  A
C1063      C1064   1.400       .  A
C1063      N1070   1.439       .  S
C1064      H1069   1.083       .  S
C1065      C1066   1.413       .  A
C1066      N1067   1.437       .  S
N1067      H1071   1.046       .  S
N1067      H1072   1.046       .  S
N1070      H1073   1.045       .  S
N1070      H1074   1.046       .  S
O1075     Ni1083   1.914   1_565  S
O1076      C1086   1.280       .  A
O1078     Ni1083   1.909   1_565  S
O1078      C1088   1.279   1_655  A
O1080     Ni1084   1.912       .  S
O1080      C1087   1.280       .  A
O1081     Ni1084   1.914       .  S
O1082      C1085   1.282       .  A
C1085      C1378   1.488       .  S
C1086      C1420   1.470       .  S
C1087      C1409   1.485       .  S
C1088      C1395   1.476       .  S
C1089      C1367   1.573       .  S
C1090      C1266   1.574       .  S
C1090      C1311   1.561       .  S
C1091      C1252   1.482       .  S
C1091      N1092   1.365       .  A
C1091      N1096   1.361       .  A
N1092      C1093   1.363       .  A
C1093      C1269   1.479       .  S
C1093      N1094   1.359       .  A
N1094      C1095   1.354       .  A
C1095      C1381   1.477       .  S
C1095      N1096   1.353       .  A
O1097     Ni1105   1.908   1_556  S
O1097      C1107   1.280       .  A
O1098      C1108   1.278   1_565  A
O1099      C1109   1.283       .  A
O1100     Ni1105   1.922       .  S
O1100      C1110   1.283       .  A
O1101     Ni1106   1.915       .  S
O1104     Ni1106   1.922   1_556  S
C1107      C1224   1.481       .  S
C1108      C1210   1.475   1_545  S
C1109      C1196   1.476       .  S
C1110      C1238   1.478       .  S
C1111      C1182   1.483       .  S
C1111      N1112   1.367       .  A
C1111      N1116   1.362       .  A
N1112      C1113   1.363       .  A
C1113      C1280   1.492       .  S
C1113      N1114   1.357       .  A
N1114      C1115   1.350       .  A
C1115      C1213   1.475       .  S
C1115      N1116   1.351       .  A
C1117      C1255   1.482       .  S
C1117      N1118   1.367       .  A
C1117      N1122   1.361       .  A
N1118      C1119   1.365       .  A
C1119      C1294   1.494       .  S
C1119      N1120   1.355       .  A
N1120      C1121   1.350       .  A
C1121      C1406   1.475       .  S
C1121      N1122   1.352       .  A
C1123      N1124   1.363       .  A
C1123      N1128   1.362       .  A
N1124      C1125   1.355       .  A
C1125      N1126   1.353       .  A
N1126      C1127   1.358       .  A
C1127      C1308   1.475       .  S
C1127      N1128   1.359       .  A
C1129      C1168   1.497       .  S
C1129      N1130   1.370       .  A
C1129      N1134   1.361       .  A
N1130      C1131   1.368       .  A
C1131      C1325   1.480       .  S
C1131      N1132   1.354       .  A
N1132      C1133   1.350       .  A
C1133      C1199   1.472       .  S
C1133      N1134   1.354       .  A
C1135      C1154   1.494       .  S
C1135      N1136   1.365       .  A
C1135      N1140   1.361       .  A
N1136      C1137   1.365       .  A
C1137      C1353   1.481       .  S
C1137      N1138   1.357       .  A
N1138      C1139   1.356       .  A
C1139      C1392   1.479       .  S
C1139      N1140   1.354       .  A
C1141      C1157   1.490       .  S
C1141      N1142   1.367       .  A
C1141      N1146   1.360       .  A
N1142      C1143   1.365       .  A
C1143      C1364   1.476       .  S
C1143      N1144   1.355       .  A
N1144      C1145   1.353       .  A
C1145      C1423   1.472       .  S
C1145      N1146   1.354       .  A
C1147      C1171   1.496   1_565  S
C1147      N1148   1.367       .  A
C1147      N1152   1.362       .  A
N1148      C1149   1.367       .  A
C1149      C1339   1.486       .  S
C1149      N1150   1.355       .  A
N1150      C1151   1.354       .  A
C1151      C1227   1.476       .  S
C1151      N1152   1.354       .  A
C1153      C1154   1.406       .  A
C1153      C1158   1.399       .  A
C1153      H1160   1.084       .  S
C1155      C1156   1.408       .  A
C1155      N1162   1.431       .  S
C1156      H1161   1.084       .  S
C1157      C1158   1.412       .  A
C1158      N1159   1.433       .  S
N1159      H1163   1.046       .  S
N1159      H1164   1.046       .  S
N1162      H1165   1.045       .  S
N1162      H1166   1.045   1_655  S
C1167      C1172   1.410       .  A
C1167      H1174   1.084       .  S
C1168      C1169   1.420       .  A
C1169      C1170   1.397       .  A
C1169      N1176   1.433       .  S
C1170      H1175   1.084       .  S
C1171      C1172   1.419   1_545  A
C1172      N1173   1.432       .  S
N1173      H1177   1.045       .  S
N1173      H1178   1.045       .  S
N1176      H1179   1.046       .  S
N1176      H1180   1.044       .  S
C1181      C1186   1.399       .  A
C1181      H1188   1.084       .  S
C1182      C1183   1.413   1_545  A
C1183      C1184   1.410       .  A
C1183      N1190   1.437       .  S
C1184      C1185   1.407   1_565  A
C1184      H1189   1.083       .  S
C1186      N1187   1.438       .  S
N1187      H1191   1.046       .  S
N1187      H1192   1.046       .  S
N1190      H1193   1.046       .  S
N1190      H1194   1.046       .  S
C1195      C1200   1.407       .  A
C1195      H1202   1.084       .  S
C1196      C1197   1.408       .  A
C1197      C1198   1.401       .  A
C1197      N1204   1.433       .  S
C1198      H1203   1.084       .  S
C1199      C1200   1.409       .  A
C1200      N1201   1.438       .  S
N1201      H1205   1.046       .  S
N1201      H1206   1.046       .  S
N1204      H1207   1.045       .  S
N1204      H1208   1.046       .  S
C1209      C1214   1.395       .  A
C1209      H1216   1.084       .  S
C1210      C1211   1.411       .  A
C1211      C1212   1.396       .  A
C1211      N1218   1.434       .  S
C1212      C1213   1.400   1_565  A
C1212      H1217   1.084       .  S
C1214      N1215   1.433       .  S
N1215      H1219   1.044       .  S
N1215      H1220   1.046       .  S
N1218      H1221   1.046       .  S
N1218      H1222   1.046       .  S
C1223      C1224   1.405       .  A
C1223      C1228   1.401       .  A
C1223      H1230   1.084       .  S
C1225      C1226   1.409       .  A
C1225      N1232   1.437       .  S
C1226      H1231   1.084       .  S
C1227      C1228   1.408       .  A
C1228      N1229   1.438       .  S
N1229      H1234   1.046       .  S
N1232      H1235   1.046       .  S
C1237      C1238   1.400       .  A
C1237      C1242   1.401       .  A
C1237      H1244   1.083       .  S
C1239      C1240   1.405       .  A
C1239      N1246   1.432       .  S
C1240      H1245   1.084       .  S
C1241      C1242   1.413       .  A
C1242      N1243   1.433       .  S
N1243      H1247   1.046       .  S
N1243      H1248   1.046       .  S
N1246      H1249   1.046       .  S
C1251      C1252   1.403       .  A
C1251      C1256   1.399       .  A
C1251      H1258   1.084       .  S
C1253      C1254   1.413       .  A
C1253      N1260   1.437       .  S
C1254      H1259   1.083       .  S
C1255      C1256   1.412       .  A
C1256      N1257   1.439       .  S
N1257      H1261   1.046       .  S
N1257      H1262   1.046       .  S
N1260      H1263   1.046       .  S
N1260      H1264   1.046       .  S
C1265      C1266   1.417       .  A
C1265      C1270   1.393       .  A
C1265      H1272   1.084       .  S
C1267      C1268   1.415       .  A
C1267      N1274   1.430       .  S
C1268      H1273   1.084       .  S
C1269      C1270   1.401       .  A
C1270      N1271   1.432       .  S
N1271      H1275   1.046       .  S
N1271      H1276   1.046       .  S
N1274      H1277   1.046       .  S
N1274      H1278   1.046       .  S
C1279      C1284   1.391       .  A
C1279      H1286   1.083       .  S
C1280      C1281   1.412       .  A
C1281      C1282   1.417       .  A
C1281      N1288   1.436   1_545  S
C1282      C1283   1.417       .  A
C1282      H1287   1.082   1_545  S
C1284      N1285   1.434   1_655  S
N1285      H1289   1.046       .  S
N1288      H1291   1.045   1_565  S
C1293      C1294   1.407       .  A
C1293      C1298   1.414       .  A
C1293      H1300   1.083       .  S
C1295      C1296   1.391       .  A
C1295      N1302   1.434       .  S
C1296      H1301   1.082       .  S
C1297      C1298   1.422       .  A
C1298      N1299   1.429       .  S
N1299      H1303   1.046       .  S
N1299      H1304   1.045       .  S
N1302      H1305   1.046       .  S
N1302      H1306   1.044       .  S
C1307      C1312   1.392       .  A
C1307      H1314   1.085       .  S
C1308      C1309   1.413       .  A
C1309      C1310   1.407       .  A
C1309      N1316   1.432       .  S
C1310      H1315   1.079       .  S
C1311      C1312   1.425       .  A
C1312      N1313   1.431       .  S
N1313      H1317   1.046       .  S
N1316      H1319   1.045       .  S
N1316      H1320   1.045       .  S
C1321      C1322   1.423       .  A
C1321      C1326   1.406       .  A
C1321      H1328   1.078       .  S
C1323      C1324   1.401       .  A
C1323      N1330   1.433       .  S
C1324      H1329   1.085       .  S
C1325      C1326   1.411       .  A
C1326      N1327   1.439       .  S
N1327      H1331   1.046       .  S
N1327      H1332   1.043       .  S
N1330      H1334   1.046       .  S
C1335      C1336   1.418       .  A
C1335      C1340   1.399       .  A
C1335      H1342   1.084       .  S
C1337      C1338   1.408       .  A
C1337      N1344   1.431       .  S
C1338      H1343   1.084       .  S
C1339      C1340   1.413       .  A
C1340      N1341   1.433       .  S
N1341      H1345   1.043       .  S
N1341      H1346   1.046       .  S
N1344      H1347   1.046       .  S
N1344      H1348   1.046       .  S
C1349      C1350   1.427       .  A
C1349      C1354   1.404       .  A
C1349      H1356   1.077       .  S
C1351      C1352   1.402       .  A
C1351      N1358   1.439       .  S
C1352      H1357   1.085       .  S
C1353      C1354   1.408       .  A
C1354      N1355   1.440       .  S
N1355      H1359   1.046       .  S
N1355      H1360   1.042       .  S
N1358      H1361   1.033   1_565  S
N1358      H1362   1.046       .  S
C1363      C1364   1.395       .  A
C1363      C1368   1.411       .  A
C1363      H1370   1.084       .  S
C1365      C1366   1.399       .  A
C1365      N1372   1.433       .  S
C1366      H1371   1.083       .  S
C1367      C1368   1.436       .  A
C1368      N1369   1.431       .  S
N1369      H1373   1.046       .  S
N1369      H1374   1.045       .  S
N1372      H1375   1.046       .  S
N1372      H1376   1.046       .  S
C1377      C1378   1.406       .  A
C1377      C1382   1.397       .  A
C1377      H1384   1.084       .  S
C1379      C1380   1.406       .  A
C1379      N1386   1.438       .  S
C1380      H1385   1.084       .  S
C1381      C1382   1.411       .  A
C1382      N1383   1.431       .  S
N1383      H1387   1.042       .  S
N1383      H1388   1.046       .  S
N1386      H1389   1.046       .  S
N1386      H1390   1.046       .  S
C1391      C1396   1.407       .  A
C1391      H1398   1.084       .  S
C1392      C1393   1.411       .  A
C1393      C1394   1.403       .  A
C1393      N1400   1.438       .  S
C1394      H1399   1.084       .  S
C1395      C1396   1.413   1_455  A
C1396      N1397   1.438       .  S
N1397      H1401   1.046       .  S
N1397      H1402   1.046       .  S
N1400      H1403   1.046       .  S
N1400      H1404   1.046       .  S
C1405      C1410   1.405       .  A
C1405      H1412   1.084       .  S
C1406      C1407   1.409       .  A
C1407      C1408   1.407       .  A
C1407      N1414   1.438       .  S
C1408      C1409   1.408       .  A
C1408      H1413   1.084       .  S
C1410      N1411   1.438       .  S
N1411      H1415   1.046       .  S
N1411      H1416   1.045       .  S
N1414      H1417   1.046       .  S
N1414      H1418   1.046       .  S
C1419      C1424   1.406       .  A
C1419      H1426   1.084       .  S
C1420      C1421   1.408       .  A
C1421      C1422   1.400       .  A
C1421      N1428   1.433       .  S
C1422      H1427   1.084       .  S
C1423      C1424   1.408       .  A
C1424      N1425   1.438       .  S
N1425      H1429   1.046       .  S
N1425      H1430   1.046       .  S
N1428      H1431   1.045       .  S
N1428      H1432   1.046       .  S
