geometry optimzed in LAMMPS
_audit_creation_date              2020-11-30 
_audit_creation_method            'lammps2cif' 
_symmetry_space_group_name_H-M    'P1' 
_symmetry_Int_Tables_number       1 
_symmetry_cell_setting            triclinic 
loop_ 
_symmetry_equiv_pos_as_xyz 
  x,y,z 
_cell_length_a                    25.50850388028022 
_cell_length_b                    26.8293053900282 
_cell_length_c                    42.67877883099818 
_cell_angle_alpha                 90.02007538593608 
_cell_angle_beta                  91.92377659308943 
_cell_angle_gamma                 105.78504258311953 
loop_ 
_atom_site_label 
_atom_site_type_symbol 
_atom_site_fract_x 
_atom_site_fract_y 
_atom_site_fract_z 
_atom_site_charge 
C1          C  0.22024049  0.33076198  0.31269190     0.03590
C2          C  0.22877213  0.30348154  0.33963139    -0.12560
C3          C  0.27753087  0.29034450  0.34516469     0.01090
C4          C  0.31411430  0.96114828  0.32088121    -0.11090
C5          C  0.30992746  0.99026706  0.29387077     0.03580
C6          C  0.26097121  0.00726086  0.28979225    -0.10510
H7          H  0.20078034  0.29894189  0.35865501     0.09170
H8          H  0.35195154  0.95134350  0.32601960     0.06700
H9          H  0.25526441  0.03083398  0.27018380     0.06550
C10         C  0.17435299  0.35679944  0.31315003     0.03590
C11         C  0.13168381  0.34813296  0.28989081    -0.12560
C12         C  0.08241132  0.36319211  0.29483860     0.01090
C13         C  0.07970971  0.38980417  0.32300214    -0.11090
C14         C  0.11845167  0.39269981  0.34744381     0.03580
C15         C  0.16758130  0.38161987  0.34119520    -0.10510
H16         H  0.13610290  0.32690794  0.26908036     0.09170
H17         H  0.04194341  0.39857452  0.32839542     0.06700
H18         H  0.19727568  0.38491618  0.36040100     0.06550
O19         O  0.29896106  0.00572429  0.39187051    -0.73970
O20         O  0.07161102  0.06604057  0.45696075    -0.74000
O21         O  0.06619268  0.07030756  0.39159961    -0.74050
O22         O  0.30498023  0.00005101  0.45559812    -0.74100
O23         O  0.33787215  0.26457629  0.45178792    -0.74030
O24         O  0.10047934  0.33552269  0.38953518    -0.74010
O25         O  0.10365352  0.33021996  0.45250197    -0.73990
O26         O  0.33368051  0.27161248  0.38703275    -0.74050
Ni27       Ni  0.01782876  0.03832184  0.42420843     1.25410
Ni28       Ni  0.05350411  0.29821496  0.42019560     1.25360
C29         C  0.30210595  0.29845524  0.37709899     0.88210
C30         C  0.10299467  0.37225671  0.46665885     0.88140
C31         C  0.09630977  0.04545075  0.37862584     0.88170
C32         C  0.30732236  0.95516596  0.46488999     0.88340
C33         C  0.21354791  0.33687302  0.73207195     0.03590
C34         C  0.21798493  0.30899793  0.70468557    -0.12560
C35         C  0.26489773  0.29399603  0.69911910     0.01090
C36         C  0.30418537  0.29908480  0.72326400    -0.11090
C37         C  0.30507193  0.33128826  0.74959250     0.03580
C38         C  0.25804473  0.34912845  0.75434161    -0.10510
H39         H  0.18731277  0.30394278  0.68586669     0.09170
H40         H  0.34007988  0.28653930  0.71854366     0.06700
H41         H  0.25669393  0.37361502  0.77427223     0.06550
O42         O  0.05252750  0.06592682  0.65112603    -0.73970
O43         O  0.28776688  0.98732330  0.58708447    -0.74000
O44         O  0.28356175  0.00283742  0.65064235    -0.74050
O45         O  0.05380751  0.05030683  0.58619957    -0.74100
O46         O  0.08655693  0.31668337  0.59792809    -0.74030
O47         O  0.31427274  0.26676698  0.65908040    -0.74010
O48         O  0.32129604  0.25271447  0.59470041    -0.73990
O49         O  0.08220179  0.32926960  0.65988979    -0.74050
Ni50       Ni  0.00182617  0.02955405  0.61857352     1.25410
Ni51       Ni  0.03551790  0.28914526  0.62825941     1.25360
C52         C  0.08150550  0.37530621  0.66710564     0.88210
C53         C  0.29296792  0.27644372  0.57838284     0.88140
C54         C  0.28542069  0.29668010  0.66709563     0.88170
C55         C  0.08313868  0.02024925  0.57953944     0.88340
C56         C  0.16715462  0.36116892  0.73225264     0.03590
C57         C  0.15816008  0.38705706  0.70469285    -0.12560
C58         C  0.10746790  0.39514853  0.69758506     0.01090
C59         C  0.07113529  0.39117898  0.72160372    -0.11090
C60         C  0.07587386  0.36270876  0.74897013     0.03580
C61         C  0.12530790  0.34839695  0.75441258    -0.10510
H62         H  0.18689897  0.39203678  0.68602496     0.09170
H63         H  0.03327958  0.40071355  0.71600921     0.06700
H64         H  0.13039102  0.32590421  0.77476190     0.06550
C65         C  0.19450429  0.27379800  0.51699881     0.03590
C66         C  0.22033351  0.26874856  0.48949651    -0.12560
C67         C  0.27391087  0.26558532  0.49127011     0.01090
C68         C  0.29792923  0.25955167  0.52096389    -0.11090
C69         C  0.26677890  0.25547046  0.54819534     0.03580
C70         C  0.21284223  0.25619539  0.54500810    -0.10510
H71         H  0.20368368  0.27838569  0.46730319     0.09170
H72         H  0.34161789  0.26542772  0.52331059     0.06700
H73         H  0.19215161  0.25734566  0.56657730     0.06550
C74         C  0.03605254  0.21045675  0.80473973     0.03590
C75         C  0.04499099  0.23180121  0.83546522    -0.12560
C76         C  0.01578870  0.26624317  0.84307870     0.01090
C77         C  0.99587096  0.29132277  0.81868186    -0.11090
C78         C  0.02178414  0.29565341  0.78989478     0.03580
C79         C  0.03199159  0.24703063  0.78051072    -0.10510
H80         H  0.06057500  0.21239771  0.85444870     0.09170
H81         H  0.96931585  0.31540207  0.82387188     0.06700
H82         H  0.03530305  0.23763932  0.75618286     0.06550
C83         C  0.02563210  0.34696407  0.77015075    -0.02030
C84         C  0.01903651  0.15094596  0.80391701     0.03590
C85         C  0.99858245  0.12772719  0.83242444    -0.12560
C86         C  0.01905078  0.08861389  0.84410188     0.01090
C87         C  0.04495724  0.06355742  0.82350617    -0.11090
C88         C  0.03169486  0.06445106  0.79120683     0.03580
C89         C  0.02833059  0.11525293  0.78087302    -0.10510
H90         H  0.97730139  0.14647343  0.84824842     0.09170
H91         H  0.06627194  0.03681447  0.83286037     0.06700
H92         H  0.03312492  0.12666425  0.75666255     0.06550
C93         C  0.02492377  0.20405679  0.23779847     0.03590
C94         C  0.00850962  0.21927804  0.20828369    -0.12560
C95         C  0.03127814  0.26891893  0.19836871     0.01090
C96         C  0.05259958  0.30695867  0.22113167    -0.11090
C97         C  0.03649531  0.29679384  0.25246679     0.03580
C98         C  0.03240043  0.24349484  0.26189591    -0.10510
H99         H  0.98568299  0.19122904  0.19108858     0.09170
H100        H  0.07174648  0.34593696  0.21360861     0.06700
H101        H  0.03497854  0.23331597  0.28625751     0.06550
O102        O  0.04562541  0.06658607  0.89470843    -0.73970
O103        O  0.02340076  0.29522758  0.95694644    -0.74000
O104        O  0.04680701  0.30210617  0.89365094    -0.74050
O105        O  0.01891665  0.05803828  0.95806854    -0.74100
O106        O  0.26481365  0.03549478  0.94203505    -0.74030
O107        O  0.29081125  0.27667618  0.88173812    -0.74010
O108        O  0.26778650  0.27169761  0.94398715    -0.73990
O109        O  0.29067635  0.04125617  0.88029349    -0.74050
Ni110      Ni  0.03710109  0.01483901  0.92634250     1.25410
Ni111      Ni  0.27544374  0.32207848  0.91161917     1.25360
C112        C  0.00639555  0.06694945  0.87531128     0.88210
C113        C  0.97455808  0.26990799  0.96249924     0.88140
C114        C  0.00647695  0.27934593  0.87525799     0.88170
C115        C  0.96891635  0.05695256  0.96209943     0.88340
C116        C  0.03382487  0.14938902  0.23766370     0.03590
C117        C  0.03864598  0.13011545  0.20733791    -0.12560
C118        C  0.00721461  0.08095231  0.19970972     0.01090
C119        C  0.99195834  0.04579250  0.22404020    -0.11090
C120        C  0.01987150  0.05741456  0.25341407     0.03580
C121        C  0.03152465  0.11195999  0.26224701    -0.10510
H122        H  0.05539603  0.15569001  0.18832940     0.09170
H123        H  0.96788554  0.00668376  0.21853547     0.06700
H124        H  0.03755541  0.12436556  0.28648981     0.06550
O125        O  0.05580896  0.31095255  0.14979995    -0.73870
O126        O  0.01441653  0.05893170  0.08497475    -0.74000
O127        O  0.03843179  0.06926481  0.14916978    -0.74050
O128        O  0.03067552  0.29997407  0.08514478    -0.74100
O129        O  0.27654274  0.26586868  0.09593987    -0.74030
O130        O  0.28457892  0.03267442  0.15939615    -0.74010
O131        O  0.26040345  0.02530167  0.09596102    -0.73990
O132        O  0.30118499  0.27433013  0.15852657    -0.74050
Ni133      Ni  0.03819002  0.35278756  0.11685542     1.25410
Ni134      Ni  0.27769781  0.98177638  0.12767183     1.25360
C135        C  0.01826267  0.28368472  0.16672529     0.88210
C136        C  0.96363344  0.05182124  0.07829062     0.88140
C137        C  0.99787002  0.06248232  0.16719794     0.88170
C138        C  0.98365468  0.26893940  0.07851269     0.88340
C139        C  0.90874791  0.16843337  0.02014874     0.03590
C140        C  0.92063410  0.19665764  0.99237902    -0.12560
C141        C  0.96321867  0.24183716  0.99196915     0.01090
C142        C  0.99010674  0.26299772  0.02029358    -0.11090
C143        C  0.97178981  0.23979573  0.04885529     0.03580
C144        C  0.93095660  0.19314229  0.04851140    -0.10510
H145        H  0.90054937  0.18112610  0.97035881     0.09170
H146        H  0.02082120  0.29988195  0.02029898     0.06700
H147        H  0.91847242  0.17519930  0.07074751     0.06550
C148        C  0.88896192  0.11075923  0.01858117     0.03590
C149        C  0.90275142  0.08967263  0.99108663    -0.12560
C150        C  0.95122034  0.07455967  0.99147675     0.01090
C151        C  0.97489702  0.06680906  0.02074067    -0.11090
C152        C  0.94659539  0.06987551  0.04829035     0.03580
C153        C  0.89843222  0.08535952  0.04596362    -0.10510
H154        H  0.88372306  0.09566302  0.96885923     0.09170
H155        H  0.01121319  0.05325528  0.02182294     0.06700
H156        H  0.87749682  0.08958029  0.06706546     0.06550
C157        C  0.02894255  0.01030297  0.27372025    -0.02030
C158        C  0.16509079  0.31402459  0.51897781     0.03590
C159        C  0.17473140  0.35658880  0.49881697    -0.12560
C160        C  0.13503850  0.38370847  0.49650474     0.01090
C161        C  0.10772908  0.38898032  0.52424601    -0.11090
C162        C  0.11003924  0.35522989  0.54939808     0.03580
C163        C  0.13080731  0.31318254  0.54342773    -0.10510
H164        H  0.20207382  0.35929152  0.47964914     0.09170
H165        H  0.07953410  0.41274473  0.52457510     0.06700
H166        H  0.12022524  0.27928584  0.55798665     0.06550
C167        C  0.22024700  0.66410522  0.31268491     0.03590
C168        C  0.22878035  0.63683447  0.33962846    -0.12560
C169        C  0.27753631  0.62369224  0.34516221     0.01090
C170        C  0.31410312  0.29449058  0.32089517    -0.11090
C171        C  0.30990509  0.32360666  0.29388583     0.03580
C172        C  0.26094739  0.34060103  0.28981441    -0.10510
H173        H  0.20079125  0.63230446  0.35865294     0.09170
H174        H  0.35194106  0.28468372  0.32602732     0.06700
H175        H  0.25523134  0.36417008  0.27020585     0.06550
C176        C  0.17436308  0.69014690  0.31313979     0.03590
C177        C  0.13168305  0.68146629  0.28988629    -0.12560
C178        C  0.08241426  0.69653159  0.29483565     0.01090
C179        C  0.07972511  0.72315714  0.32299602    -0.11090
C180        C  0.11847974  0.72606809  0.34743273     0.03580
C181        C  0.16760700  0.71498770  0.34117999    -0.10510
H182        H  0.13609193  0.66022753  0.26907962     0.09170
H183        H  0.04196081  0.73192847  0.32839277     0.06700
H184        H  0.19731073  0.71829518  0.36038194     0.06550
O185        O  0.29899550  0.33907688  0.39188879    -0.73970
O186        O  0.07148465  0.39921093  0.45697739    -0.74000
O187        O  0.06607608  0.40352275  0.39162141    -0.74050
O188        O  0.30504217  0.33338821  0.45561389    -0.74100
O189        O  0.33787770  0.59790243  0.45178400    -0.74030
O190        O  0.10052472  0.66890099  0.38952889    -0.74010
O191        O  0.10371970  0.66360962  0.45249611    -0.73990
O192        O  0.33367756  0.60494387  0.38702887    -0.74050
Ni193      Ni  0.01770961  0.37150361  0.42422212     1.25410
Ni194      Ni  0.05356001  0.63160028  0.42019561     1.25360
C195        C  0.30211176  0.63179638  0.37709675     0.88210
C196        C  0.10306310  0.70564569  0.46665454     0.88140
C197        C  0.09621244  0.37868895  0.37864489     0.88170
C198        C  0.30738916  0.28850160  0.46489913     0.88340
C199        C  0.21355457  0.67022804  0.73207842     0.03590
C200        C  0.21799451  0.64236970  0.70468518    -0.12560
C201        C  0.26490212  0.62735735  0.69911861     0.01090
C202        C  0.30418304  0.63242896  0.72326593    -0.11090
C203        C  0.30507176  0.66462720  0.74959710     0.03580
C204        C  0.25804776  0.68246925  0.75434957    -0.10510
H205        H  0.18732853  0.63733322  0.68586406     0.09170
H206        H  0.34007361  0.61987628  0.71854639     0.06700
H207        H  0.25669742  0.70694815  0.77428409     0.06550
O208        O  0.05239538  0.39910116  0.65110201    -0.73970
O209        O  0.28787133  0.32068170  0.58708197    -0.74000
O210        O  0.28363190  0.33620115  0.65063418    -0.74050
O211        O  0.05367293  0.38343639  0.58618691    -0.74100
O212        O  0.08666110  0.65011472  0.59793780    -0.74030
O213        O  0.31427584  0.60011867  0.65908245    -0.74010
O214        O  0.32131052  0.58606254  0.59470339    -0.73990
O215        O  0.08227094  0.66267712  0.65989846    -0.74050
Ni216      Ni  0.00169017  0.36270272  0.61855942     1.25410
Ni217      Ni  0.03560895  0.62255786  0.62825911     1.25360
C218        C  0.08156524  0.70871013  0.66711625     0.88210
C219        C  0.29298850  0.60979578  0.57838418     0.88140
C220        C  0.28543061  0.63003928  0.66709605     0.88170
C221        C  0.08300981  0.35338038  0.57953467     0.88340
C222        C  0.16716768  0.69453058  0.73226565     0.03590
C223        C  0.15819513  0.72045211  0.70471593    -0.12560
C224        C  0.10750461  0.72854192  0.69760199     0.01090
C225        C  0.07115250  0.72454474  0.72161322    -0.11090
C226        C  0.07587682  0.69605555  0.74897385     0.03580
C227        C  0.12530717  0.68173713  0.75441669    -0.10510
H228        H  0.18694781  0.72545073  0.68605427     0.09170
H229        H  0.03329637  0.73407567  0.71601437     0.06700
H230        H  0.13037832  0.65922493  0.77475910     0.06550
C231        C  0.19452708  0.60715304  0.51699900     0.03590
C232        C  0.22035050  0.60209063  0.48949684    -0.12560
C233        C  0.27392636  0.59892289  0.49127045     0.01090
C234        C  0.29794601  0.59289480  0.52096498    -0.11090
C235        C  0.26679756  0.58882186  0.54819690     0.03580
C236        C  0.21286210  0.58955078  0.54500926    -0.10510
H237        H  0.20370104  0.61172657  0.46730309     0.09170
H238        H  0.34163418  0.59876775  0.52331113     0.06700
H239        H  0.19217254  0.59070651  0.56657819     0.06550
C240        C  0.03603845  0.54378291  0.80472655     0.03590
C241        C  0.04497432  0.56512043  0.83545413    -0.12560
C242        C  0.01577455  0.59956371  0.84307064     0.01090
C243        C  0.99585967  0.62464953  0.81867564    -0.11090
C244        C  0.02177262  0.62898456  0.78988818     0.03580
C245        C  0.03197880  0.58036244  0.78050066    -0.10510
H246        H  0.06055389  0.54571041  0.85443607     0.09170
H247        H  0.96930544  0.64872870  0.82386771     0.06700
H248        H  0.03529129  0.57097544  0.75617227     0.06550
C249        C  0.02562455  0.68030031  0.77014719    -0.02030
C250        C  0.01901782  0.48427133  0.80389912     0.03590
C251        C  0.99854842  0.46105066  0.83240318    -0.12560
C252        C  0.01902215  0.42194555  0.84408872     0.01090
C253        C  0.04494409  0.39689136  0.82349976    -0.11090
C254        C  0.03169719  0.39778041  0.79119787     0.03580
C255        C  0.02833210  0.44857994  0.78085961    -0.10510
H256        H  0.97725802  0.47979646  0.84822181     0.09170
H257        H  0.06625949  0.37015331  0.83286004     0.06700
H258        H  0.03314028  0.45998925  0.75664920     0.06550
C259        C  0.02489823  0.53738204  0.23781054     0.03590
C260        C  0.00846921  0.55259605  0.20829708    -0.12560
C261        C  0.03124189  0.60223302  0.19837575     0.01090
C262        C  0.05257420  0.64027826  0.22113427    -0.11090
C263        C  0.03648069  0.63012324  0.25247191     0.03580
C264        C  0.03238836  0.57682656  0.26190500    -0.10510
H265        H  0.98563993  0.52454176  0.19110548     0.09170
H266        H  0.07172320  0.67925352  0.21360689     0.06700
H267        H  0.03498097  0.56665482  0.28626699     0.06550
O268        O  0.04559675  0.39994021  0.89470110    -0.73970
O269        O  0.02338763  0.62853440  0.95694340    -0.74000
O270        O  0.04679358  0.63541618  0.89364599    -0.74050
O271        O  0.01888659  0.39139599  0.95806318    -0.74100
O272        O  0.26475917  0.36881003  0.94203797    -0.74030
O273        O  0.29080337  0.61002404  0.88174224    -0.74010
O274        O  0.26778621  0.60504588  0.94399123    -0.73990
O275        O  0.29063596  0.37458656  0.88029753    -0.74050
Ni276      Ni  0.03708039  0.34819898  0.92633879     1.25410
Ni277      Ni  0.27544107  0.65542774  0.91162370     1.25360
C278        C  0.00636663  0.40029210  0.87530142     0.88210
C279        C  0.97454351  0.60321820  0.96249614     0.88140
C280        C  0.00646299  0.61266224  0.87525153     0.88170
C281        C  0.96888353  0.39029923  0.96209484     0.88340
C282        C  0.03381585  0.48272048  0.23767452     0.03590
C283        C  0.03864239  0.46345397  0.20734764    -0.12560
C284        C  0.00721302  0.41429154  0.19971552     0.01090
C285        C  0.99195823  0.37912564  0.22404355    -0.11090
C286        C  0.01986689  0.39074360  0.25341936     0.03580
C287        C  0.03151595  0.44528730  0.26225569    -0.10510
H288        H  0.05538825  0.48903467  0.18834095     0.09170
H289        H  0.96788934  0.34001672  0.21853571     0.06700
H290        H  0.03754156  0.45768761  0.28649961     0.06550
O291        O  0.05578143  0.64425400  0.14980428    -0.73870
O292        O  0.01440082  0.39228717  0.08497399    -0.74000
O293        O  0.03842485  0.40262319  0.14917039    -0.74050
O294        O  0.03065287  0.63327941  0.08514729    -0.74100
O295        O  0.27656360  0.59920271  0.09593557    -0.74030
O296        O  0.28449741  0.36597947  0.15940696    -0.74010
O297        O  0.26031998  0.35862221  0.09596908    -0.73990
O298        O  0.30120463  0.60766224  0.15852097    -0.74050
Ni299      Ni  0.03817377  0.68609358  0.11685864     1.25410
Ni300      Ni  0.27758618  0.31507836  0.12767937     1.25360
C301        C  0.01823104  0.61699240  0.16672969     0.88210
C302        C  0.96361552  0.38516570  0.07829121     0.88140
C303        C  0.99786576  0.39583017  0.16720151     0.88170
C304        C  0.98362867  0.60225208  0.07851336     0.88340
C305        C  0.90871222  0.50175299  0.02014741     0.03590
C306        C  0.92060840  0.52997384  0.99237689    -0.12560
C307        C  0.96319883  0.57514914  0.99196724     0.01090
C308        C  0.99008497  0.59630861  0.02029284    -0.11090
C309        C  0.97175997  0.57311047  0.04885472     0.03580
C310        C  0.93091840  0.52646271  0.04851009    -0.10510
H311        H  0.90052597  0.51444199  0.97035615     0.09170
H312        H  0.02080521  0.63318912  0.02029862     0.06700
H313        H  0.91842633  0.50852259  0.07074591     0.06550
C314        C  0.88891622  0.44407852  0.01858227     0.03590
C315        C  0.90270130  0.42298833  0.99108795    -0.12560
C316        C  0.95118163  0.40789445  0.99147477     0.01090
C317        C  0.97486805  0.40015288  0.02073831    -0.11090
C318        C  0.94656726  0.40321217  0.04829005     0.03580
C319        C  0.89839485  0.41868152  0.04596438    -0.10510
H320        H  0.88366322  0.42897057  0.96886199     0.09170
H321        H  0.01119281  0.38661281  0.02181898     0.06700
H322        H  0.87745865  0.42289756  0.06706675     0.06550
C323        C  0.02893436  0.34362791  0.27372372    -0.02030
C324        C  0.16513443  0.64739633  0.51897641     0.03590
C325        C  0.17478985  0.68995857  0.49881368    -0.12560
C326        C  0.13511024  0.71709395  0.49650041     0.01090
C327        C  0.10781090  0.72238311  0.52424324    -0.11090
C328        C  0.11011665  0.68863670  0.54939867     0.03580
C329        C  0.13085912  0.64657308  0.54342775    -0.10510
H330        H  0.20212854  0.69264770  0.47964512     0.09170
H331        H  0.07962840  0.74616009  0.52457248     0.06700
H332        H  0.12026360  0.61267811  0.55798766     0.06550
C333        C  0.22025443  0.99741919  0.31266321     0.03590
C334        C  0.22877041  0.97013236  0.33960271    -0.12560
C335        C  0.27752752  0.95699514  0.34514446     0.01090
C336        C  0.31410691  0.62783103  0.32089230    -0.11090
C337        C  0.30991030  0.65694367  0.29388128     0.03580
C338        C  0.26095308  0.67393773  0.28980740    -0.10510
H339        H  0.20077052  0.96559694  0.35862218     0.09170
H340        H  0.35194302  0.61802078  0.32602468     0.06700
H341        H  0.25523688  0.69750276  0.27019691     0.06550
C342        C  0.17438163  0.02347360  0.31312037     0.03590
C343        C  0.13169597  0.01479462  0.28987117    -0.12560
C344        C  0.08243376  0.02986908  0.29482388     0.01090
C345        C  0.07975916  0.05650613  0.32298197    -0.11090
C346        C  0.11852210  0.05942181  0.34741499     0.03580
C347        C  0.16763962  0.04832259  0.34116021    -0.10510
H348        H  0.13609561  0.99354911  0.26906557     0.09170
H349        H  0.04199980  0.06528535  0.32838099     0.06700
H350        H  0.19734662  0.05162433  0.36035997     0.06550
O351        O  0.29901259  0.67242050  0.39188828    -0.73970
O352        O  0.07155186  0.73260035  0.45697501    -0.74000
O353        O  0.06612836  0.73690533  0.39161771    -0.74050
O354        O  0.30506357  0.66672349  0.45561390    -0.74100
O355        O  0.33780870  0.93123657  0.45178567    -0.74030
O356        O  0.10057187  0.00229076  0.38952852    -0.74010
O357        O  0.10376221  0.99703761  0.45249792    -0.73990
O358        O  0.33365503  0.93826368  0.38702652    -0.74050
Ni359      Ni  0.01776953  0.70489164  0.42422242     1.25410
Ni360      Ni  0.05360130  0.96501660  0.42020079     1.25360
C361        C  0.30208415  0.96510445  0.37708368     0.88210
C362        C  0.10311245  0.03908200  0.46664950     0.88140
C363        C  0.09625590  0.71206615  0.37863780     0.88170
C364        C  0.30740352  0.62183430  0.46489799     0.88340
C365        C  0.21355249  0.00354816  0.73210056     0.03590
C366        C  0.21796275  0.97566710  0.70471245    -0.12560
C367        C  0.26486418  0.96065103  0.69913539     0.01090
C368        C  0.30416933  0.96574043  0.72327196    -0.11090
C369        C  0.30507782  0.99794967  0.74960147     0.03580
C370        C  0.25806069  0.01579816  0.75436075    -0.10510
H371        H  0.18728182  0.97062609  0.68589912     0.09170
H372        H  0.34005744  0.95318948  0.71854355     0.06700
H373        H  0.25672665  0.04029019  0.77429152     0.06550
O374        O  0.05246301  0.73250727  0.65110809    -0.73970
O375        O  0.28789813  0.65403666  0.58708228    -0.74000
O376        O  0.28365413  0.66956340  0.65063427    -0.74050
O377        O  0.05375887  0.71685373  0.58619020    -0.74100
O378        O  0.08670587  0.98356145  0.59793560    -0.74030
O379        O  0.31419648  0.93339821  0.65908181    -0.74010
O380        O  0.32117105  0.91934173  0.59469394    -0.73990
O381        O  0.08231587  0.99608100  0.65989967    -0.74050
Ni382      Ni  0.00177075  0.69610942  0.61856002     1.25410
Ni383      Ni  0.03565059  0.95598901  0.62825290     1.25360
C384        C  0.08161811  0.04211109  0.66712925     0.88210
C385        C  0.29285218  0.94308401  0.57837892     0.88140
C386        C  0.28535878  0.96332006  0.66710507     0.88170
C387        C  0.08310213  0.68680251  0.57953988     0.88340
C388        C  0.16718289  0.02787001  0.73228803     0.03590
C389        C  0.15822784  0.05380475  0.70474033    -0.12560
C390        C  0.10754531  0.06191171  0.69762320     0.01090
C391        C  0.07118072  0.05790163  0.72162943    -0.11090
C392        C  0.07589080  0.02939873  0.74898649     0.03580
C393        C  0.12531452  0.01507290  0.75443266    -0.10510
H394        H  0.18698591  0.05879839  0.68608162     0.09170
H395        H  0.03332774  0.06743692  0.71602813     0.06700
H396        H  0.13037459  0.99255077  0.77477249     0.06550
C397        C  0.19443286  0.94050248  0.51697901     0.03590
C398        C  0.22026106  0.93543876  0.48947952    -0.12560
C399        C  0.27383118  0.93225553  0.49125886     0.01090
C400        C  0.29783267  0.92620708  0.52095636    -0.11090
C401        C  0.26667077  0.92212906  0.54818442     0.03580
C402        C  0.21274073  0.92287425  0.54498856    -0.10510
H403        H  0.20362670  0.94509585  0.46728643     0.09170
H404        H  0.34151844  0.93206775  0.52330894     0.06700
H405        H  0.19203965  0.92402827  0.56655380     0.06550
C406        C  0.03603493  0.87711531  0.80472875     0.03590
C407        C  0.04498330  0.89845303  0.83545578    -0.12560
C408        C  0.01579174  0.93290090  0.84307609     0.01090
C409        C  0.99587362  0.95799046  0.81868425    -0.11090
C410        C  0.02177604  0.96232198  0.78989400     0.03580
C411        C  0.03197184  0.91369627  0.78050382    -0.10510
H412        H  0.06056490  0.87904056  0.85443575     0.09170
H413        H  0.96932487  0.98207327  0.82387999     0.06700
H414        H  0.03527454  0.90430843  0.75617447     0.06550
C415        C  0.02563462  0.01364211  0.77015559    -0.02030
C416        C  0.01900927  0.81760363  0.80390267     0.03590
C417        C  0.99854612  0.79438383  0.83240855    -0.12560
C418        C  0.01901525  0.75527291  0.84409045     0.01090
C419        C  0.04493086  0.73021843  0.82349836    -0.11090
C420        C  0.03167989  0.73111095  0.79119722     0.03580
C421        C  0.02831554  0.78191178  0.78086138    -0.10510
H422        H  0.97726291  0.81313218  0.84823000     0.09170
H423        H  0.06624655  0.70347878  0.83285607     0.06700
H424        H  0.03312051  0.79332343  0.75665135     0.06550
C425        C  0.02489666  0.87071446  0.23780711     0.03590
C426        C  0.00847241  0.88592928  0.20829313    -0.12560
C427        C  0.03125045  0.93556487  0.19837197     0.01090
C428        C  0.05258202  0.97361027  0.22113010    -0.11090
C429        C  0.03648383  0.96345734  0.25246686     0.03580
C430        C  0.03238594  0.91016002  0.26190122    -0.10510
H431        H  0.98564116  0.85787623  0.19110145     0.09170
H432        H  0.07173410  0.01258482  0.21360256     0.06700
H433        H  0.03497346  0.89998921  0.28626377     0.06550
O434        O  0.04559125  0.73325323  0.89469989    -0.73970
O435        O  0.02341278  0.96186319  0.95694773    -0.74000
O436        O  0.04681833  0.96874709  0.89365134    -0.74050
O437        O  0.01888339  0.72470569  0.95806239    -0.74100
O438        O  0.26476107  0.70216015  0.94204321    -0.74030
O439        O  0.29088738  0.94335433  0.88174860    -0.74010
O440        O  0.26788114  0.93839440  0.94399667    -0.73990
O441        O  0.29063251  0.70793627  0.88030179    -0.74050
Ni442      Ni  0.03707158  0.68150822  0.92633618     1.25410
Ni443      Ni  0.27551007  0.98876007  0.91162265     1.25360
C444        C  0.00636066  0.73361303  0.87530213     0.88210
C445        C  0.97456774  0.93654964  0.96250007     0.88140
C446        C  0.00648535  0.94599556  0.87525786     0.88170
C447        C  0.96888162  0.72361244  0.96209524     0.88340
C448        C  0.03380746  0.81605028  0.23767179     0.03590
C449        C  0.03862994  0.79677890  0.20734531    -0.12560
C450        C  0.00720061  0.74761504  0.19971600     0.01090
C451        C  0.99194475  0.71245419  0.22404639    -0.11090
C452        C  0.01985760  0.72407576  0.25342071     0.03580
C453        C  0.03150916  0.77862055  0.26225445    -0.10510
H454        H  0.05537611  0.82235596  0.18833712     0.09170
H455        H  0.96787307  0.67334525  0.21854122     0.06700
H456        H  0.03753877  0.79102465  0.28649757     0.06550
O457        O  0.05579492  0.97758527  0.14980212    -0.73870
O458        O  0.01439537  0.72559847  0.08497625    -0.74000
O459        O  0.03841465  0.73593212  0.14917331    -0.74050
O460        O  0.03067024  0.96660996  0.08514671    -0.74100
O461        O  0.27668383  0.93257125  0.09593649    -0.74030
O462        O  0.28451032  0.69930683  0.15940358    -0.74010
O463        O  0.26033516  0.69195463  0.09596701    -0.73990
O464        O  0.30132324  0.94104939  0.15851901    -0.74050
Ni465      Ni  0.03819106  0.01942534  0.11685663     1.25410
Ni466      Ni  0.27760317  0.64840939  0.12767533     1.25360
C467        C  0.01824249  0.95032463  0.16672637     0.88210
C468        C  0.96361147  0.71848405  0.07829233     0.88140
C469        C  0.99785444  0.72914695  0.16720307     0.88170
C470        C  0.98364629  0.93558238  0.07851286     0.88340
C471        C  0.90873164  0.83508230  0.02014778     0.03590
C472        C  0.92063123  0.86330304  0.99237757    -0.12560
C473        C  0.96322249  0.90847755  0.99196923     0.01090
C474        C  0.99010779  0.92963577  0.02029475    -0.11090
C475        C  0.97178071  0.90643789  0.04885585     0.03580
C476        C  0.93093840  0.85979060  0.04851086    -0.10510
H477        H  0.90054933  0.84777292  0.97035639     0.09170
H478        H  0.02082768  0.96651669  0.02030108     0.06700
H479        H  0.91844469  0.84185109  0.07074660     0.06550
C480        C  0.88892743  0.77740849  0.01858217     0.03590
C481        C  0.90270889  0.75631516  0.99108794    -0.12560
C482        C  0.95118366  0.74121176  0.99147518     0.01090
C483        C  0.97486754  0.73346722  0.02073901    -0.11090
C484        C  0.94656829  0.73653246  0.04829056     0.03580
C485        C  0.89840051  0.75200933  0.04596431    -0.10510
H486        H  0.88367342  0.76230070  0.96886180     0.09170
H487        H  0.01118841  0.71992102  0.02182010     0.06700
H488        H  0.87746528  0.75622908  0.06706640     0.06550
C489        C  0.02892963  0.67696401  0.27372664    -0.02030
C490        C  0.16508939  0.98078201  0.51896095     0.03590
C491        C  0.17481260  0.02337236  0.49881766    -0.12560
C492        C  0.13515874  0.05053723  0.49649727     0.01090
C493        C  0.10785863  0.05583822  0.52423930    -0.11090
C494        C  0.11012227  0.02206626  0.54938839     0.03580
C495        C  0.13080020  0.97996671  0.54340341    -0.10510
H496        H  0.20216745  0.02605586  0.47965756     0.09170
H497        H  0.07971204  0.07965135  0.52457269     0.06700
H498        H  0.12015622  0.94605728  0.55795000     0.06550
C499        C  0.55362269  0.33089371  0.31279205     0.03590
C500        C  0.56227019  0.30372451  0.33975880    -0.12560
C501        C  0.61104941  0.29061411  0.34525903     0.01090
C502        C  0.64754605  0.96132969  0.32095154    -0.11090
C503        C  0.64326546  0.99037585  0.29392740     0.03580
C504        C  0.59428100  0.00733940  0.28987538    -0.10510
H505        H  0.53433931  0.29921322  0.35881088     0.09170
H506        H  0.68539464  0.95152670  0.32605725     0.06700
H507        H  0.58849717  0.03083671  0.27024425     0.06550
C508        C  0.50766020  0.35684882  0.31323934     0.03590
C509        C  0.46503015  0.34817859  0.28995155    -0.12560
C510        C  0.41572582  0.36319830  0.29487328     0.01090
C511        C  0.41294501  0.38977059  0.32303941    -0.11090
C512        C  0.45162828  0.39264553  0.34750788     0.03580
C513        C  0.50079594  0.38161964  0.34128777    -0.10510
H514        H  0.46950096  0.32698719  0.26913682     0.09170
H515        H  0.37515729  0.39851945  0.32840795     0.06700
H516        H  0.53046062  0.38494562  0.36051126     0.06550
O517        O  0.63273466  0.00618821  0.39190560    -0.73970
O518        O  0.40434122  0.06569752  0.45696830    -0.74000
O519        O  0.39905002  0.06999208  0.39162605    -0.74050
O520        O  0.63886577  0.00060119  0.45562029    -0.74100
O521        O  0.67167033  0.26503659  0.45182015    -0.74030
O522        O  0.43362518  0.33542960  0.38958445    -0.74010
O523        O  0.43667389  0.33008733  0.45255121    -0.73990
O524        O  0.66731419  0.27196701  0.38708208    -0.74050
Ni525      Ni  0.35064338  0.03792299  0.42419921     1.25410
Ni526      Ni  0.38661211  0.29805272  0.42021034     1.25360
C527        C  0.63574727  0.29882167  0.37715917     0.88210
C528        C  0.43595343  0.37212911  0.46667970     0.88140
C529        C  0.42929220  0.04522542  0.37869064     0.88170
C530        C  0.64120143  0.95572275  0.46492252     0.88340
C531        C  0.54693855  0.33693536  0.73192095     0.03590
C532        C  0.55156788  0.30917837  0.70451790    -0.12560
C533        C  0.59855931  0.29428148  0.69900667     0.01090
C534        C  0.63772049  0.29931100  0.72320896    -0.11090
C535        C  0.63844987  0.33143024  0.74955086     0.03580
C536        C  0.59134738  0.34918328  0.75425576    -0.10510
H537        H  0.52097208  0.30410230  0.68565646     0.09170
H538        H  0.67365927  0.28680993  0.71853200     0.06700
H539        H  0.58987237  0.37358828  0.77420546     0.06550
O540        O  0.38519536  0.06529570  0.65101763    -0.73970
O541        O  0.62190796  0.98804391  0.58710581    -0.74000
O542        O  0.61756978  0.00342292  0.65063939    -0.74050
O543        O  0.38637654  0.04961800  0.58612853    -0.74100
O544        O  0.41934132  0.31620345  0.59781902    -0.74030
O545        O  0.64819651  0.26729725  0.65902035    -0.74010
O546        O  0.65547344  0.25343884  0.59466980    -0.73990
O547        O  0.41517300  0.32890221  0.65978525    -0.74050
Ni548      Ni  0.33443881  0.02886460  0.61851193     1.25410
Ni549      Ni  0.36840552  0.28870616  0.62820540     1.25360
C550        C  0.41446258  0.37494016  0.66699291     0.88210
C551        C  0.62708074  0.27714605  0.57838795     0.88140
C552        C  0.61929085  0.29716169  0.66703225     0.88170
C553        C  0.41573451  0.01959323  0.57945606     0.88340
C554        C  0.50041437  0.36107880  0.73208268     0.03590
C555        C  0.49127113  0.38683457  0.70449511    -0.12560
C556        C  0.44054092  0.39486833  0.69743155     0.01090
C557        C  0.40431188  0.39098352  0.72149253    -0.11090
C558        C  0.40915515  0.36259010  0.74887380     0.03580
C559        C  0.45863738  0.34834274  0.75429237    -0.10510
H560        H  0.51995106  0.39181981  0.68579701     0.09170
H561        H  0.36644203  0.40051246  0.71593068     0.06700
H562        H  0.46380902  0.32593366  0.77466442     0.06550
C563        C  0.52841395  0.27440762  0.51707924     0.03590
C564        C  0.55422231  0.26937346  0.48956724    -0.12560
C565        C  0.60777704  0.26614421  0.49131118     0.01090
C566        C  0.63185099  0.26011689  0.52098329    -0.11090
C567        C  0.60079212  0.25615097  0.54823651     0.03580
C568        C  0.54687781  0.25696062  0.54510116    -0.10510
H569        H  0.53752929  0.27895557  0.46737353     0.09170
H570        H  0.67553392  0.26592842  0.52329300     0.06700
H571        H  0.52627909  0.25821895  0.56669168     0.06550
C572        C  0.36943433  0.21037625  0.80468777     0.03590
C573        C  0.37834276  0.23170876  0.83541914    -0.12560
C574        C  0.34913584  0.26614973  0.84303237     0.01090
C575        C  0.32923131  0.29123343  0.81863167    -0.11090
C576        C  0.35515781  0.29557032  0.78984598     0.03580
C577        C  0.36538771  0.24695791  0.78046250    -0.10510
H578        H  0.39392064  0.21230253  0.85440347     0.09170
H579        H  0.30267949  0.31531724  0.82381968     0.06700
H580        H  0.36872211  0.23757601  0.75613573     0.06550
C581        C  0.35896677  0.34686670  0.77009602    -0.02030
C582        C  0.35243691  0.15086282  0.80385020     0.03590
C583        C  0.33197124  0.12763431  0.83235101    -0.12560
C584        C  0.35246205  0.08854143  0.84403431     0.01090
C585        C  0.37837147  0.06348195  0.82344017    -0.11090
C586        C  0.36510418  0.06436664  0.79113972     0.03580
C587        C  0.36174114  0.11517041  0.78080433    -0.10510
H588        H  0.31067108  0.14636832  0.84817078     0.09170
H589        H  0.39968813  0.03674271  0.83279709     0.06700
H590        H  0.36653834  0.12657491  0.75659196     0.06550
C591        C  0.35830666  0.20406276  0.23780929     0.03590
C592        C  0.34186007  0.21927213  0.20829795    -0.12560
C593        C  0.36461194  0.26891301  0.19837523     0.01090
C594        C  0.38595650  0.30696058  0.22113226    -0.11090
C595        C  0.36988817  0.29680427  0.25247401     0.03580
C596        C  0.36580929  0.24350831  0.26190373    -0.10510
H597        H  0.31903584  0.19121305  0.19110748     0.09170
H598        H  0.40509668  0.34593632  0.21360277     0.06700
H599        H  0.36841921  0.23333450  0.28626391     0.06550
O600        O  0.37905420  0.06655716  0.89464786    -0.73970
O601        O  0.35676031  0.29515895  0.95691643    -0.74000
O602        O  0.38016290  0.30200184  0.89361267    -0.74050
O603        O  0.35236380  0.05805312  0.95801897    -0.74100
O604        O  0.59787843  0.03550601  0.94205069    -0.74030
O605        O  0.62392991  0.27674953  0.88174169    -0.74010
O606        O  0.60087830  0.27173173  0.94398875    -0.73990
O607        O  0.62377326  0.04131542  0.88031126    -0.74050
Ni608      Ni  0.37053785  0.01483373  0.92629580     1.25410
Ni609      Ni  0.60855065  0.32213385  0.91162932     1.25360
C610        C  0.33981940  0.06690323  0.87525055     0.88210
C611        C  0.30790911  0.26986876  0.96247227     0.88140
C612        C  0.33982782  0.27926445  0.87521544     0.88170
C613        C  0.30236388  0.05696592  0.96205647     0.88340
C614        C  0.36723120  0.14940320  0.23767260     0.03590
C615        C  0.37207134  0.13014572  0.20734547    -0.12560
C616        C  0.34065211  0.08098218  0.19970572     0.01090
C617        C  0.32538166  0.04580856  0.22403056    -0.11090
C618        C  0.35326664  0.05741959  0.25341438     0.03580
C619        C  0.36491758  0.11196350  0.26225215    -0.10510
H620        H  0.38881811  0.15573496  0.18834256     0.09170
H621        H  0.30132114  0.00669943  0.21851624     0.06700
H622        H  0.37093126  0.12435915  0.28649720     0.06550
O623        O  0.38914803  0.31091246  0.14979626    -0.73870
O624        O  0.34787220  0.05898848  0.08495493    -0.74000
O625        O  0.37188188  0.06933023  0.14915865    -0.74050
O626        O  0.36401429  0.29993875  0.08513511    -0.74100
O627        O  0.60964087  0.26589557  0.09594976    -0.74030
O628        O  0.61768263  0.03267722  0.15942463    -0.74010
O629        O  0.59347084  0.02532351  0.09598951    -0.73990
O630        O  0.63431741  0.27434449  0.15853360    -0.74050
Ni631      Ni  0.37155317  0.35275667  0.11684885     1.25410
Ni632      Ni  0.61075421  0.98177764  0.12769403     1.25360
C633        C  0.35159574  0.28366696  0.16672682     0.88210
C634        C  0.29708780  0.05185229  0.07826398     0.88140
C635        C  0.33131714  0.06253318  0.16718691     0.88170
C636        C  0.31698429  0.26891980  0.07850087     0.88340
C637        C  0.24208204  0.16841434  0.02012438     0.03590
C638        C  0.25395902  0.19664527  0.99235769    -0.12560
C639        C  0.29654897  0.24181903  0.99194871     0.01090
C640        C  0.32343185  0.26298135  0.02027545    -0.11090
C641        C  0.30510389  0.23978378  0.04883795     0.03580
C642        C  0.26426729  0.19313064  0.04849027    -0.10510
H643        H  0.23387988  0.18111132  0.97033656     0.09170
H644        H  0.35415790  0.29985761  0.02028075     0.06700
H645        H  0.25177824  0.17518428  0.07072473     0.06550
C646        C  0.22237685  0.11073641  0.01854825     0.03590
C647        C  0.23619478  0.08967688  0.99105039    -0.12560
C648        C  0.28466893  0.07457209  0.99143934     0.01090
C649        C  0.30834803  0.06682745  0.02070553    -0.11090
C650        C  0.28004235  0.06988592  0.04825686     0.03580
C651        C  0.23186646  0.08534633  0.04592968    -0.10510
H652        H  0.21716736  0.09566707  0.96882270     0.09170
H653        H  0.34467282  0.05328811  0.02178871     0.06700
H654        H  0.21092618  0.08955548  0.06703171     0.06550
C655        C  0.36231763  0.01029640  0.27372191    -0.02030
C656        C  0.49860860  0.31432444  0.51901548     0.03590
C657        C  0.50790405  0.35681606  0.49881145    -0.12560
C658        C  0.46798064  0.38366914  0.49651608     0.01090
C659        C  0.44057291  0.38874344  0.52424729    -0.11090
C660        C  0.44305838  0.35503280  0.54938850     0.03580
C661        C  0.46424116  0.31324367  0.54345272    -0.10510
H662        H  0.53524781  0.35966015  0.47963230     0.09170
H663        H  0.41215194  0.41227816  0.52456333     0.06700
H664        H  0.45391430  0.27934978  0.55802383     0.06550
C665        C  0.55361747  0.66420302  0.31277805     0.03590
C666        C  0.56224648  0.63701052  0.33973800    -0.12560
C667        C  0.61102435  0.62389948  0.34524284     0.01090
C668        C  0.64752742  0.29466601  0.32095203    -0.11090
C669        C  0.64324874  0.32370995  0.29392682     0.03580
C670        C  0.59426472  0.34067312  0.28987249    -0.10510
H671        H  0.53430415  0.63248759  0.35878503     0.09170
H672        H  0.68537266  0.28485606  0.32605656     0.06700
H673        H  0.58847984  0.36416527  0.27023909     0.06550
C674        C  0.50766381  0.69016748  0.31322934     0.03590
C675        C  0.46503396  0.68150670  0.28994259    -0.12560
C676        C  0.41573265  0.69652902  0.29486780     0.01090
C677        C  0.41295692  0.72309882  0.32303573    -0.11090
C678        C  0.45164100  0.72596569  0.34750314     0.03580
C679        C  0.50080430  0.71493248  0.34128069    -0.10510
H680        H  0.46950224  0.66031878  0.26912594     0.09170
H681        H  0.37517196  0.73185192  0.32840587     0.06700
H682        H  0.53046791  0.71824658  0.36050373     0.06550
O683        O  0.63274283  0.33950959  0.39191745    -0.73970
O684        O  0.40440568  0.39902968  0.45697821    -0.74000
O685        O  0.39908373  0.40334473  0.39163519    -0.74050
O686        O  0.63889303  0.33388537  0.45563242    -0.74100
O687        O  0.67160128  0.59829110  0.45181384    -0.74030
O688        O  0.43362990  0.66874473  0.38957686    -0.74010
O689        O  0.43668743  0.66339683  0.45254317    -0.73990
O690        O  0.66727197  0.60524077  0.38707304    -0.74050
Ni691      Ni  0.35069279  0.37126721  0.42421307     1.25410
Ni692      Ni  0.38661665  0.63137305  0.42020425     1.25360
C693        C  0.63570117  0.63209104  0.37714873     0.88210
C694        C  0.43597597  0.70543686  0.46667684     0.88140
C695        C  0.42931388  0.37857814  0.37868797     0.88170
C696        C  0.64122008  0.28900028  0.46492620     0.88340
C697        C  0.54692425  0.67024398  0.73193677     0.03590
C698        C  0.55152760  0.64246120  0.70454030    -0.12560
C699        C  0.59851266  0.62755777  0.69902246     0.01090
C700        C  0.63769584  0.63260991  0.72321567    -0.11090
C701        C  0.63844313  0.66474530  0.74955326     0.03580
C702        C  0.59134685  0.68250533  0.75426160    -0.10510
H703        H  0.52091784  0.63737553  0.68568580     0.09170
H704        H  0.67363193  0.62010797  0.71853338     0.06700
H705        H  0.58988642  0.70692636  0.77420591     0.06550
O706        O  0.38525752  0.39867778  0.65102240    -0.73970
O707        O  0.62196157  0.32136617  0.58710375    -0.74000
O708        O  0.61760229  0.33677633  0.65063453    -0.74050
O709        O  0.38647397  0.38298972  0.58613374    -0.74100
O710        O  0.41936422  0.64953829  0.59782821    -0.74030
O711        O  0.64811249  0.60053898  0.65902889    -0.74010
O712        O  0.65535182  0.58665026  0.59467402    -0.73990
O713        O  0.41518379  0.66223760  0.65979344    -0.74050
Ni714      Ni  0.33452292  0.36223414  0.61851121     1.25410
Ni715      Ni  0.36841780  0.62204854  0.62821111     1.25360
C716        C  0.41448168  0.70827817  0.66699978     0.88210
C717        C  0.62696602  0.61035737  0.57838621     0.88140
C718        C  0.61921124  0.63040760  0.66704057     0.88170
C719        C  0.41584336  0.35297037  0.57947102     0.88340
C720        C  0.50041314  0.69440194  0.73209689     0.03590
C721        C  0.49128001  0.72015927  0.70450812    -0.12560
C722        C  0.44055394  0.72820033  0.69744086     0.01090
C723        C  0.40431872  0.72431484  0.72149893    -0.11090
C724        C  0.40915414  0.69591951  0.74888081     0.03580
C725        C  0.45863239  0.68166895  0.75430336    -0.10510
H726        H  0.51996225  0.72513544  0.68581157     0.09170
H727        H  0.36645109  0.73384620  0.71593426     0.06700
H728        H  0.46379778  0.65925818  0.77467578     0.06550
C729        C  0.52832393  0.60762210  0.51706785     0.03590
C730        C  0.55413701  0.60259104  0.48955686    -0.12560
C731        C  0.60769710  0.59937729  0.49130438     0.01090
C732        C  0.63176509  0.59335071  0.52097931    -0.11090
C733        C  0.60069302  0.58936323  0.54822971     0.03580
C734        C  0.54677363  0.59015489  0.54508756    -0.10510
H735        H  0.53744780  0.61217874  0.46736334     0.09170
H736        H  0.67544964  0.59917649  0.52329402     0.06700
H737        H  0.52616157  0.59139427  0.56667536     0.06550
C738        C  0.36942028  0.54370737  0.80469622     0.03590
C739        C  0.37832816  0.56504320  0.83542649    -0.12560
C740        C  0.34912189  0.59948575  0.84303704     0.01090
C741        C  0.32921819  0.62456690  0.81863501    -0.11090
C742        C  0.35514808  0.62890163  0.78985082     0.03580
C743        C  0.36537653  0.58028758  0.78046913    -0.10510
H744        H  0.39390654  0.54563994  0.85441211     0.09170
H745        H  0.30266810  0.64865321  0.82382148     0.06700
H746        H  0.36871223  0.57090437  0.75614265     0.06550
C747        C  0.35896430  0.68019932  0.77010125    -0.02030
C748        C  0.35242582  0.48419390  0.80386137     0.03590
C749        C  0.33196202  0.46096639  0.83236303    -0.12560
C750        C  0.35243915  0.42186286  0.84404313     0.01090
C751        C  0.37833922  0.39679852  0.82344659    -0.11090
C752        C  0.36507753  0.39769345  0.79114550     0.03580
C753        C  0.36172119  0.44850080  0.78081355    -0.10510
H754        H  0.31066682  0.47970283  0.84818434     0.09170
H755        H  0.39964717  0.37005122  0.83280192     0.06700
H756        H  0.36651852  0.45990880  0.75660187     0.06550
C757        C  0.35831019  0.53739525  0.23780233     0.03590
C758        C  0.34187557  0.55260913  0.20829005    -0.12560
C759        C  0.36462990  0.60224968  0.19836996     0.01090
C760        C  0.38596477  0.64029654  0.22112851    -0.11090
C761        C  0.36989005  0.63013736  0.25246902     0.03580
C762        C  0.36580593  0.57683928  0.26189774    -0.10510
H763        H  0.31904679  0.52455482  0.19109849     0.09170
H764        H  0.40510464  0.67927314  0.21360043     0.06700
H765        H  0.36840378  0.56666228  0.28625811     0.06550
O766        O  0.37901333  0.39985011  0.89465542    -0.73970
O767        O  0.35676193  0.62850337  0.95691589    -0.74000
O768        O  0.38015657  0.63534735  0.89361323    -0.74050
O769        O  0.35230763  0.39134260  0.95802516    -0.74100
O770        O  0.59785630  0.36884916  0.94205535    -0.74030
O771        O  0.62395642  0.61009050  0.88174195    -0.74010
O772        O  0.60091108  0.60508021  0.94398944    -0.73990
O773        O  0.62375777  0.37466100  0.88031696    -0.74050
Ni774      Ni  0.37046868  0.34811802  0.92630043     1.25410
Ni775      Ni  0.60857021  0.65547537  0.91162668     1.25360
C776        C  0.33978563  0.40021768  0.87525744     0.88210
C777        C  0.30791164  0.60321265  0.96247296     0.88140
C778        C  0.33981850  0.61260843  0.87521861     0.88170
C779        C  0.30231114  0.39026917  0.96206158     0.88340
C780        C  0.36720900  0.48272531  0.23766783     0.03590
C781        C  0.37202602  0.46345085  0.20734155    -0.12560
C782        C  0.34059011  0.41428908  0.19971135     0.01090
C783        C  0.32532064  0.37912979  0.22404350    -0.11090
C784        C  0.35322959  0.39074630  0.25342061     0.03580
C785        C  0.36490194  0.44529446  0.26225145    -0.10510
H786        H  0.38877592  0.48902710  0.18833365     0.09170
H787        H  0.30124572  0.34002239  0.21853771     0.06700
H788        H  0.37093806  0.45770015  0.28649434     0.06550
O789        O  0.38916768  0.64424808  0.14979177    -0.73870
O790        O  0.34779466  0.39226928  0.08496284    -0.74000
O791        O  0.37180610  0.40259942  0.14916628    -0.74050
O792        O  0.36403520  0.63327530  0.08513145    -0.74100
O793        O  0.60969822  0.59924635  0.09595021    -0.74030
O794        O  0.61765372  0.36600343  0.15942742    -0.74010
O795        O  0.59343932  0.35865879  0.09599225    -0.73990
O796        O  0.63437611  0.60770254  0.15853279    -0.74050
Ni797      Ni  0.37157045  0.68609136  0.11684569     1.25410
Ni798      Ni  0.61071235  0.31510401  0.12769504     1.25360
C799        C  0.35161533  0.61700239  0.16672185     0.88210
C800        C  0.29701393  0.38515674  0.07827126     0.88140
C801        C  0.33124459  0.39582444  0.16719524     0.88170
C802        C  0.31700630  0.60225436  0.07849753     0.88340
C803        C  0.24208784  0.50175520  0.02012464     0.03590
C804        C  0.25396487  0.52998573  0.99235773    -0.12560
C805        C  0.29655736  0.57515767  0.99194767     0.01090
C806        C  0.32344855  0.59631577  0.02027298    -0.11090
C807        C  0.30512668  0.57311674  0.04883569     0.03580
C808        C  0.26428821  0.52646530  0.04848948    -0.10510
H809        H  0.23387856  0.51445570  0.97033758     0.09170
H810        H  0.35417541  0.63319152  0.02027768     0.06700
H811        H  0.25180377  0.50851903  0.07072460     0.06550
C812        C  0.22235137  0.44407912  0.01854895     0.03590
C813        C  0.23616027  0.42300958  0.99105237    -0.12560
C814        C  0.28462080  0.40788174  0.99144422     0.01090
C815        C  0.30828899  0.40012722  0.02071216    -0.11090
C816        C  0.27998284  0.40319759  0.04826206     0.03580
C817        C  0.23182063  0.41868082  0.04593124    -0.10510
H818        H  0.21714205  0.42900913  0.96882362     0.09170
H819        H  0.34460516  0.38657470  0.02179770     0.06700
H820        H  0.21088144  0.42290120  0.06703171     0.06550
C821        C  0.36228697  0.34362756  0.27372948    -0.02030
C822        C  0.49856389  0.64757511  0.51901065     0.03590
C823        C  0.50789834  0.69007538  0.49881170    -0.12560
C824        C  0.46800260  0.71696043  0.49651508     0.01090
C825        C  0.44060426  0.72205524  0.52424676    -0.11090
C826        C  0.44306820  0.68833906  0.54938869     0.03580
C827        C  0.46420704  0.64652197  0.54345007    -0.10510
H828        H  0.53524185  0.69290409  0.47963374     0.09170
H829        H  0.41220813  0.74561541  0.52456389     0.06700
H830        H  0.45385290  0.61262880  0.55802065     0.06550
C831        C  0.55363734  0.99755227  0.31279448     0.03590
C832        C  0.56227963  0.97036852  0.33975537    -0.12560
C833        C  0.61106417  0.95726886  0.34525720     0.01090
C834        C  0.64751898  0.62797281  0.32094209    -0.11090
C835        C  0.64325154  0.65703048  0.29392057     0.03580
C836        C  0.59427039  0.67399720  0.28986515    -0.10510
H837        H  0.53434395  0.96584549  0.35880567     0.09170
H838        H  0.68536449  0.61816579  0.32605063     0.06700
H839        H  0.58849582  0.69750392  0.27023695     0.06550
C840        C  0.50767312  0.02350508  0.31324633     0.03590
C841        C  0.46505636  0.01485185  0.28995223    -0.12560
C842        C  0.41574802  0.02986523  0.29487162     0.01090
C843        C  0.41295461  0.05642646  0.32303958    -0.11090
C844        C  0.45162399  0.05928671  0.34751364     0.03580
C845        C  0.50079154  0.04825340  0.34130025    -0.10510
H846        H  0.46954008  0.99367509  0.26913404     0.09170
H847        H  0.37516500  0.06517557  0.32840342     0.06700
H848        H  0.53044431  0.05156459  0.36052858     0.06550
O849        O  0.63267550  0.67276624  0.39191282    -0.73970
O850        O  0.40443554  0.73234732  0.45697886    -0.74000
O851        O  0.39910911  0.73667233  0.39163486    -0.74050
O852        O  0.63880879  0.66712971  0.45562928    -0.74100
O853        O  0.67166897  0.93176538  0.45182812    -0.74030
O854        O  0.43359990  0.00208065  0.38959493    -0.74010
O855        O  0.43660906  0.99675121  0.45256227    -0.73990
O856        O  0.66734273  0.93866576  0.38708873    -0.74050
Ni857      Ni  0.35071687  0.70459873  0.42421315     1.25410
Ni858      Ni  0.38656695  0.96470880  0.42021424     1.25360
C859        C  0.63576090  0.96549963  0.37715669     0.88210
C860        C  0.43588544  0.03880106  0.46668047     0.88140
C861        C  0.42932836  0.71189847  0.37868364     0.88170
C862        C  0.64114317  0.62224535  0.46492119     0.88340
C863        C  0.54693471  0.00357553  0.73191332     0.03590
C864        C  0.55155653  0.97579521  0.70451952    -0.12560
C865        C  0.59855431  0.96091231  0.69900666     0.01090
C866        C  0.63772523  0.96596162  0.72320527    -0.11090
C867        C  0.63845363  0.99808727  0.74954429     0.03580
C868        C  0.59134874  0.01583999  0.75424552    -0.10510
H869        H  0.52095216  0.97069771  0.68566141     0.09170
H870        H  0.67366878  0.95346995  0.71852611     0.06700
H871        H  0.58987507  0.04025588  0.77419007     0.06550
O872        O  0.38528806  0.73202320  0.65102564    -0.73970
O873        O  0.62184585  0.65457884  0.58709875    -0.74000
O874        O  0.61750240  0.67000579  0.65063228    -0.74050
O875        O  0.38650814  0.71632877  0.58613577    -0.74100
O876        O  0.41922290  0.98281111  0.59779414    -0.74030
O877        O  0.64819346  0.93395703  0.65901021    -0.74010
O878        O  0.65543748  0.92012350  0.59465462    -0.73990
O879        O  0.41510595  0.99551306  0.65976397    -0.74050
Ni880      Ni  0.33455239  0.69558537  0.61851254     1.25410
Ni881      Ni  0.36830730  0.95532439  0.62819232     1.25360
C882        C  0.41440908  0.04155272  0.66697705     0.88210
C883        C  0.62703403  0.94383068  0.57838122     0.88140
C884        C  0.61927836  0.96380739  0.66703081     0.88170
C885        C  0.41586891  0.68630019  0.57947537     0.88340
C886        C  0.50040674  0.02771529  0.73206644     0.03590
C887        C  0.49124146  0.05343467  0.70446749    -0.12560
C888        C  0.44051212  0.06147766  0.69741131     0.01090
C889        C  0.40430252  0.05762019  0.72147956    -0.11090
C890        C  0.40915923  0.02924465  0.74886597     0.03580
C891        C  0.45864438  0.01500376  0.75428492    -0.10510
H892        H  0.51990615  0.05839655  0.68576265     0.09170
H893        H  0.36643332  0.06715347  0.71592246     0.06700
H894        H  0.46382775  0.99261524  0.77466438     0.06550
C895        C  0.52837971  0.94112338  0.51706800     0.03590
C896        C  0.55419824  0.93610580  0.48955743    -0.12560
C897        C  0.60774921  0.93286687  0.49130396     0.01090
C898        C  0.63181229  0.92681951  0.52097580    -0.11090
C899        C  0.60074785  0.92284901  0.54822696     0.03580
C900        C  0.54683755  0.92367102  0.54508973    -0.10510
H901        H  0.53751260  0.94569940  0.46736435     0.09170
H902        H  0.67549360  0.93262113  0.52328830     0.06700
H903        H  0.52623581  0.92492978  0.56667938     0.06550
C904        C  0.36946438  0.87704901  0.80469151     0.03590
C905        C  0.37839728  0.89838907  0.83542061    -0.12560
C906        C  0.34920315  0.93283920  0.84303791     0.01090
C907        C  0.32928039  0.95791397  0.81864009    -0.11090
C908        C  0.35518479  0.96224124  0.78984866     0.03580
C909        C  0.36540367  0.91362454  0.78046505    -0.10510
H910        H  0.39397807  0.87898081  0.85440283     0.09170
H911        H  0.30272843  0.98199586  0.82383168     0.06700
H912        H  0.36871699  0.90423414  0.75613739     0.06550
C913        C  0.35898276  0.01353178  0.77009548    -0.02030
C914        C  0.35244475  0.81753639  0.80386018     0.03590
C915        C  0.33197616  0.79431876  0.83236348    -0.12560
C916        C  0.35243706  0.75520565  0.84404537     0.01090
C917        C  0.37833175  0.73013173  0.82345155    -0.11090
C918        C  0.36507786  0.73102711  0.79114982     0.03580
C919        C  0.36173330  0.78183619  0.78081529    -0.10510
H920        H  0.31069393  0.81306914  0.84818441     0.09170
H921        H  0.39963323  0.70338122  0.83280946     0.06700
H922        H  0.36653731  0.79324198  0.75660359     0.06550
C923        C  0.35838759  0.87074982  0.23778480     0.03590
C924        C  0.34200196  0.88598367  0.20826616    -0.12560
C925        C  0.36475449  0.93563323  0.19836177     0.01090
C926        C  0.38605573  0.97366537  0.22113284    -0.11090
C927        C  0.36993715  0.96348309  0.25246458     0.03580
C928        C  0.36584116  0.91017907  0.26188618    -0.10510
H929        H  0.31918233  0.85794353  0.19106460     0.09170
H930        H  0.40519453  0.01264949  0.21361682     0.06700
H931        H  0.36839298  0.89998518  0.28624628     0.06550
O932        O  0.37901076  0.73319751  0.89465792    -0.73970
O933        O  0.35685916  0.96188122  0.95691497    -0.74000
O934        O  0.38024253  0.96871841  0.89361028    -0.74050
O935        O  0.35231142  0.72468824  0.95802712    -0.74100
O936        O  0.59786835  0.70219114  0.94205041    -0.74030
O937        O  0.62396748  0.94340951  0.88173960    -0.74010
O938        O  0.60092243  0.93839579  0.94398766    -0.73990
O939        O  0.62376477  0.70799685  0.88031014    -0.74050
Ni940      Ni  0.37046773  0.68146388  0.92630146     1.25410
Ni941      Ni  0.60858062  0.98879205  0.91162601     1.25360
C942        C  0.33978234  0.73356633  0.87526086     0.88210
C943        C  0.30801489  0.93657881  0.96247640     0.88140
C944        C  0.33990506  0.94595829  0.87522095     0.88170
C945        C  0.30231624  0.72361758  0.96206523     0.88340
C946        C  0.36724425  0.81606217  0.23765660     0.03590
C947        C  0.37205538  0.79677448  0.20733364    -0.12560
C948        C  0.34060091  0.74761944  0.19970676     0.01090
C949        C  0.32532487  0.71246541  0.22404078    -0.11090
C950        C  0.35323818  0.72408242  0.25341665     0.03580
C951        C  0.36492801  0.77863444  0.26224357    -0.10510
H952        H  0.38882728  0.82233825  0.18832467     0.09170
H953        H  0.30124596  0.67335855  0.21853681     0.06700
H954        H  0.37097604  0.79104544  0.28648537     0.06550
O955        O  0.38928029  0.97766692  0.14979030    -0.73870
O956        O  0.34781038  0.72560472  0.08496200    -0.74000
O957        O  0.37181879  0.73593039  0.14916336    -0.74050
O958        O  0.36414876  0.96667815  0.08513016    -0.74100
O959        O  0.60969515  0.93257029  0.09595062    -0.74030
O960        O  0.61768540  0.69934969  0.15942582    -0.74010
O961        O  0.59346963  0.69199811  0.09599101    -0.73990
O962        O  0.63436866  0.94102719  0.15853424    -0.74050
Ni963      Ni  0.37165830  0.01949492  0.11684192     1.25410
Ni964      Ni  0.61075717  0.64845216  0.12769426     1.25360
C965        C  0.35173564  0.95040409  0.16671858     0.88210
C966        C  0.29702980  0.71849407  0.07827161     0.88140
C967        C  0.33125662  0.72915255  0.16719196     0.88170
C968        C  0.31712981  0.93563682  0.07849899     0.88340
C969        C  0.24219787  0.83513449  0.02013452     0.03590
C970        C  0.25407687  0.86336042  0.99236679    -0.12560
C971        C  0.29667408  0.90852764  0.99195258     0.01090
C972        C  0.32357216  0.92968918  0.02027537    -0.11090
C973        C  0.30525978  0.90649088  0.04883979     0.03580
C974        C  0.26442381  0.85983695  0.04849711    -0.10510
H975        H  0.23397867  0.84783375  0.97034884     0.09170
H976        H  0.35429382  0.96656842  0.02027728     0.06700
H977        H  0.25194745  0.84189107  0.07073346     0.06550
C978        C  0.22239921  0.77746159  0.01855919     0.03590
C979        C  0.23618118  0.75637412  0.99106138    -0.12560
C980        C  0.28463300  0.74123150  0.99144871     0.01090
C981        C  0.30830013  0.73346599  0.02071452    -0.11090
C982        C  0.28000138  0.73654419  0.04826587     0.03580
C983        C  0.23185268  0.75205080  0.04593926    -0.10510
H984        H  0.21715985  0.76237821  0.96883448     0.09170
H985        H  0.34460807  0.71990033  0.02179729     0.06700
H986        H  0.21092314  0.75628285  0.06704145     0.06550
C987        C  0.36229244  0.67696189  0.27372504    -0.02030
C988        C  0.49855193  0.98102021  0.51900528     0.03590
C989        C  0.50784995  0.02352866  0.49881395    -0.12560
C990        C  0.46790965  0.05036157  0.49651619     0.01090
C991        C  0.44048314  0.05540871  0.52424449    -0.11090
C992        C  0.44295865  0.02167824  0.54937612     0.03580
C993        C  0.46415792  0.97990298  0.54343330    -0.10510
H994        H  0.53520947  0.02639660  0.47964064     0.09170
H995        H  0.41205494  0.07893594  0.52456259     0.06700
H996        H  0.45383245  0.94599651  0.55799442     0.06550
C997        C  0.88693754  0.33084739  0.31271491     0.03590
C998        C  0.89554356  0.30369312  0.33969759    -0.12560
C999        C  0.94429937  0.29054231  0.34522002     0.01090
C1000       C  0.98084495  0.96129970  0.32094043    -0.11090
C1001       C  0.97659391  0.99032717  0.29390369     0.03580
C1002       C  0.92761678  0.00728897  0.28982080    -0.10510
H1003       H  0.86760124  0.29923351  0.35874151     0.09170
H1004       H  0.01867949  0.95147640  0.32605746     0.06700
H1005       H  0.92184679  0.03076021  0.27017406     0.06550
C1006       C  0.84103998  0.35688008  0.31314341     0.03590
C1007       C  0.79834010  0.34815611  0.28989517    -0.12560
C1008       C  0.74908361  0.36325759  0.29483080     0.01090
C1009       C  0.74641334  0.38992148  0.32298001    -0.11090
C1010       C  0.78518597  0.39287184  0.34741175     0.03580
C1011       C  0.83431374  0.38179880  0.34115912    -0.10510
H1012       H  0.80272642  0.32686886  0.26910439     0.09170
H1013       H  0.70865177  0.39869745  0.32837741     0.06700
H1014       H  0.86403975  0.38516607  0.36035464     0.06550
O1015       O  0.96604751  0.00615649  0.39190928    -0.73970
O1016       O  0.73825289  0.06619081  0.45694728    -0.74000
O1017       O  0.73283303  0.07042181  0.39158926    -0.74050
O1018       O  0.97218649  0.00052656  0.45563007    -0.74100
O1019       O  0.00480693  0.26480900  0.45180532    -0.74030
O1020       O  0.76728421  0.33573221  0.38952339    -0.74010
O1021       O  0.77050323  0.33047374  0.45249352    -0.73990
O1022       O  0.00048697  0.27180052  0.38705891    -0.74050
Ni1023     Ni  0.68448869  0.03841295  0.42419882     1.25410
Ni1024     Ni  0.72034401  0.29843136  0.42020059     1.25360
C1025       C  0.96894680  0.29868454  0.37713691     0.88210
C1026       C  0.76982664  0.37250990  0.46664414     0.88140
C1027       C  0.76298697  0.04559563  0.37862462     0.88170
C1028       C  0.97448447  0.95563358  0.46492698     0.88340
C1029       C  0.88028435  0.33700712  0.73205771     0.03590
C1030       C  0.88483816  0.30928158  0.70462612    -0.12560
C1031       C  0.93177592  0.29430162  0.69908039     0.01090
C1032       C  0.97097481  0.29928640  0.72326201    -0.11090
C1033       C  0.97178562  0.33141130  0.74961379     0.03580
C1034       C  0.92472456  0.34919669  0.75436418    -0.10510
H1035       H  0.85423148  0.30430408  0.68577649     0.09170
H1036       H  0.00688091  0.28674615  0.71856132     0.06700
H1037       H  0.92330959  0.37359899  0.77432545     0.06550
O1038       O  0.71916724  0.06596472  0.65111076    -0.73970
O1039       O  0.95518878  0.98805319  0.58712426    -0.74000
O1040       O  0.95087282  0.00349859  0.65066531    -0.74050
O1041       O  0.72047583  0.05039514  0.58618705    -0.74100
O1042       O  0.75351205  0.31699437  0.59793031    -0.74030
O1043       O  0.98128178  0.26717017  0.65907408    -0.74010
O1044       O  0.98848016  0.25320984  0.59471213    -0.73990
O1045       O  0.74907141  0.32949185  0.65989230    -0.74050
Ni1046     Ni  0.66850352  0.02956171  0.61855594     1.25410
Ni1047     Ni  0.70245764  0.28937031  0.62823542     1.25360
C1048       C  0.74832175  0.37550915  0.66712036     0.88210
C1049       C  0.96013672  0.27694148  0.57840972     0.88140
C1050       C  0.95242866  0.29708619  0.66708453     0.88170
C1051       C  0.74986362  0.02039284  0.57952191     0.88340
C1052       C  0.83385880  0.36126599  0.73225980     0.03590
C1053       C  0.82491474  0.38725983  0.70473574    -0.12560
C1054       C  0.77422167  0.39533103  0.69761524     0.01090
C1055       C  0.73784283  0.39128567  0.72161650    -0.11090
C1056       C  0.74254632  0.36276207  0.74896598     0.03580
C1057       C  0.79197228  0.34842146  0.75439945    -0.10510
H1058       H  0.85369645  0.39233009  0.68608599     0.09170
H1059       H  0.69998571  0.40081112  0.71601241     0.06700
H1060       H  0.79702542  0.32586886  0.77472617     0.06550
C1061       C  0.86157335  0.27424078  0.51705142     0.03590
C1062       C  0.88736360  0.26912425  0.48954735    -0.12560
C1063       C  0.94092607  0.26591904  0.49130973     0.01090
C1064       C  0.96498031  0.25992761  0.52099765    -0.11090
C1065       C  0.93388585  0.25595301  0.54824189     0.03580
C1066       C  0.87996581  0.25673848  0.54507709    -0.10510
H1067       H  0.87069164  0.27871638  0.46734943     0.09170
H1068       H  0.00866411  0.26575978  0.52332343     0.06700
H1069       H  0.85932743  0.25798213  0.56665478     0.06550
C1070       C  0.70259481  0.21045545  0.80471844     0.03590
C1071       C  0.71148208  0.23178157  0.83544957    -0.12560
C1072       C  0.68228166  0.26623149  0.84305015     0.01090
C1073       C  0.66241831  0.29133378  0.81864308    -0.11090
C1074       C  0.68838291  0.29567378  0.78986920     0.03580
C1075       C  0.69859153  0.24704837  0.78049021    -0.10510
H1076       H  0.72703503  0.21236746  0.85443959     0.09170
H1077       H  0.63586325  0.31541905  0.82382035     0.06700
H1078       H  0.70194577  0.23766743  0.75616544     0.06550
C1079       C  0.69226226  0.34699123  0.77012303    -0.02030
C1080       C  0.68558828  0.15094330  0.80387998     0.03590
C1081       C  0.66510313  0.12770629  0.83237638    -0.12560
C1082       C  0.68558574  0.08860859  0.84406298     0.01090
C1083       C  0.71151903  0.06356422  0.82347358    -0.11090
C1084       C  0.69828379  0.06446074  0.79116862     0.03580
C1085       C  0.69491638  0.11526366  0.78083672    -0.10510
H1086       H  0.64379322  0.14643703  0.84819206     0.09170
H1087       H  0.73283684  0.03682813  0.83283441     0.06700
H1088       H  0.69973795  0.12668816  0.75662970     0.06550
C1089       C  0.69148104  0.20409416  0.23781259     0.03590
C1090       C  0.67499950  0.21929564  0.20830761    -0.12560
C1091       C  0.69776199  0.26892766  0.19837307     0.01090
C1092       C  0.71914754  0.30698123  0.22112092    -0.11090
C1093       C  0.70311069  0.29684444  0.25246958     0.03580
C1094       C  0.69902317  0.24354978  0.26190392    -0.10510
H1095       H  0.65214922  0.19123256  0.19112687     0.09170
H1096       H  0.73829401  0.34595064  0.21358282     0.06700
H1097       H  0.70165991  0.23338748  0.28626488     0.06550
O1098       O  0.71214690  0.06658324  0.89467641    -0.73970
O1099       O  0.68984715  0.29519199  0.95693058    -0.74000
O1100       O  0.71327635  0.30206275  0.89363432    -0.74050
O1101       O  0.68542481  0.05805200  0.95804248    -0.74100
O1102       O  0.93136918  0.03548389  0.94207670    -0.74030
O1103       O  0.95745448  0.27672794  0.88177956    -0.74010
O1104       O  0.93442560  0.27172973  0.94402021    -0.73990
O1105       O  0.95725237  0.04128762  0.88034257    -0.74050
Ni1106     Ni  0.70360141  0.01484179  0.92631695     1.25410
Ni1107     Ni  0.94205641  0.32211331  0.91165495     1.25360
C1108       C  0.67292290  0.06695415  0.87527607     0.88210
C1109       C  0.64099409  0.26989502  0.96247762     0.88140
C1110       C  0.67295034  0.27933764  0.87522860     0.88170
C1111       C  0.63542519  0.05696683  0.96207690     0.88340
C1112       C  0.70041029  0.14943769  0.23767055     0.03590
C1113       C  0.70520972  0.13016855  0.20734045    -0.12560
C1114       C  0.67379757  0.08099511  0.19971819     0.01090
C1115       C  0.65856665  0.04583672  0.22405394    -0.11090
C1116       C  0.68649964  0.05746683  0.25342339     0.03580
C1117       C  0.69814485  0.11201315  0.26225327    -0.10510
H1118       H  0.72192289  0.15574983  0.18832765     0.09170
H1119       H  0.63449509  0.00672594  0.21855435     0.06700
H1120       H  0.70418968  0.12442418  0.28649465     0.06550
O1121       O  0.72227747  0.31091556  0.14978965    -0.73870
O1122       O  0.68093886  0.05896785  0.08496810    -0.74000
O1123       O  0.70498397  0.06929917  0.14916753    -0.74050
O1124       O  0.69711022  0.29994848  0.08513357    -0.74100
O1125       O  0.94320617  0.26587904  0.09594732    -0.74030
O1126       O  0.95112816  0.03262283  0.15941459    -0.74010
O1127       O  0.92694443  0.02527339  0.09598498    -0.73990
O1128       O  0.96785107  0.27433250  0.15852619    -0.74050
Ni1129     Ni  0.70467552  0.35276632  0.11684871     1.25410
Ni1130     Ni  0.94422540  0.98172876  0.12768611     1.25360
C1131       C  0.68473118  0.28367509  0.16672576     0.88210
C1132       C  0.63015514  0.05185722  0.07828566     0.88140
C1133       C  0.66443298  0.06252490  0.16720410     0.88170
C1134       C  0.65007330  0.26893901  0.07850464     0.88340
C1135       C  0.57515751  0.16843347  0.02013168     0.03590
C1136       C  0.58704129  0.19665817  0.99236138    -0.12560
C1137       C  0.62962707  0.24183713  0.99195228     0.01090
C1138       C  0.65650770  0.26299966  0.02027933    -0.11090
C1139       C  0.63817792  0.23980531  0.04884190     0.03580
C1140       C  0.59733630  0.19315707  0.04849613    -0.10510
H1141       H  0.56696869  0.18111978  0.97033963     0.09170
H1142       H  0.68723553  0.29987483  0.02028475     0.06700
H1143       H  0.58484270  0.17521704  0.07073157     0.06550
C1144       C  0.55545193  0.11075438  0.01856537     0.03590
C1145       C  0.56926063  0.08968326  0.99106979    -0.12560
C1146       C  0.61772882  0.07456940  0.99145986     0.01090
C1147       C  0.64140849  0.06682541  0.02072601    -0.11090
C1148       C  0.61310990  0.06989540  0.04827832     0.03580
C1149       C  0.56494275  0.08537146  0.04595095    -0.10510
H1150       H  0.55023524  0.09567417  0.96884164     0.09170
H1151       H  0.67772951  0.05328007  0.02180874     0.06700
H1152       H  0.54400743  0.08958991  0.06705317     0.06550
C1153       C  0.69559927  0.01036164  0.27373010    -0.02030
C1154       C  0.83206422  0.31439420  0.51899115     0.03590
C1155       C  0.84161233  0.35691036  0.49879708    -0.12560
C1156       C  0.80187669  0.38398354  0.49648685     0.01090
C1157       C  0.77457267  0.38925154  0.52423193    -0.11090
C1158       C  0.77694769  0.35554316  0.54939718     0.03580
C1159       C  0.79777673  0.31353195  0.54343899    -0.10510
H1160       H  0.86893743  0.35960969  0.47962066     0.09170
H1161       H  0.74633470  0.41297216  0.52455623     0.06700
H1162       H  0.78724788  0.27964372  0.55800823     0.06550
C1163       C  0.88694589  0.66419666  0.31273402     0.03590
C1164       C  0.89556516  0.63705022  0.33971755    -0.12560
C1165       C  0.94432380  0.62390315  0.34523460     0.01090
C1166       C  0.98081090  0.29458776  0.32092875    -0.11090
C1167       C  0.97657534  0.32363608  0.29389788     0.03580
C1168       C  0.92760211  0.34060262  0.28981428    -0.10510
H1169       H  0.86762980  0.63258923  0.35876493     0.09170
H1170       H  0.01864480  0.28476588  0.32604988     0.06700
H1171       H  0.92184530  0.36409421  0.27017516     0.06550
C1172       C  0.84103619  0.69021590  0.31316317     0.03590
C1173       C  0.79834829  0.68149922  0.28990769    -0.12560
C1174       C  0.74908376  0.69658919  0.29483903     0.01090
C1175       C  0.74639380  0.72323820  0.32299069    -0.11090
C1176       C  0.78515082  0.72617689  0.34742906     0.03580
C1177       C  0.83428660  0.71511420  0.34118262    -0.10510
H1178       H  0.80274942  0.66022564  0.26911407     0.09170
H1179       H  0.70862710  0.73200846  0.32838285     0.06700
H1180       H  0.86400273  0.71847875  0.36038297     0.06550
O1181       O  0.96593899  0.33935317  0.39191490    -0.73970
O1182       O  0.73829587  0.39944295  0.45696031    -0.74000
O1183       O  0.73285500  0.40371697  0.39160211    -0.74050
O1184       O  0.97206928  0.33367797  0.45563777    -0.74100
O1185       O  0.00487179  0.59820190  0.45180994    -0.74030
O1186       O  0.76723432  0.66902102  0.38953323    -0.74010
O1187       O  0.77042599  0.66374607  0.45250264    -0.73990
O1188       O  0.00053183  0.60517897  0.38706656    -0.74050
Ni1189     Ni  0.68451487  0.37170188  0.42421207     1.25410
Ni1190     Ni  0.72028428  0.63170333  0.42020152     1.25360
C1191       C  0.96898863  0.63206068  0.37714630     0.88210
C1192       C  0.76973894  0.70578210  0.46664968     0.88140
C1193       C  0.76298741  0.37888340  0.37862322     0.88170
C1194       C  0.97437903  0.28878283  0.46492483     0.88340
C1195       C  0.88028677  0.67033803  0.73203053     0.03590
C1196       C  0.88486435  0.64262232  0.70459884    -0.12560
C1197       C  0.93181280  0.62765717  0.69906065     0.01090
C1198       C  0.97099565  0.63263610  0.72324939    -0.11090
C1199       C  0.97178659  0.66475092  0.74960242     0.03580
C1200       C  0.92471642  0.68252796  0.75434568    -0.10510
H1201       H  0.85426609  0.63763649  0.68574418     0.09170
H1202       H  0.00690798  0.62010285  0.71855392     0.06700
H1203       H  0.92328648  0.70692223  0.77430834     0.06550
O1204       O  0.71921122  0.39929502  0.65111129    -0.73970
O1205       O  0.95505237  0.32118070  0.58711578    -0.74000
O1206       O  0.95074238  0.33667172  0.65065808    -0.74050
O1207       O  0.72054164  0.38369305  0.58618969    -0.74100
O1208       O  0.75338722  0.65020299  0.59791257    -0.74030
O1209       O  0.98135749  0.60056228  0.65906221    -0.74010
O1210       O  0.98858924  0.58662589  0.59470516    -0.73990
O1211       O  0.74898650  0.66273407  0.65987508    -0.74050
Ni1212     Ni  0.66855383  0.36288862  0.61855420     1.25410
Ni1213     Ni  0.70235265  0.62259560  0.62823021     1.25360
C1214       C  0.74823780  0.70875376  0.66709889     0.88210
C1215       C  0.96023509  0.61035160  0.57840697     0.88140
C1216       C  0.95249298  0.63046834  0.66707137     0.88170
C1217       C  0.74992106  0.35367674  0.57953654     0.88340
C1218       C  0.83384165  0.69457559  0.73222806     0.03590
C1219       C  0.82486596  0.72053519  0.70469540    -0.12560
C1220       C  0.77416618  0.72859786  0.69758399     0.01090
C1221       C  0.73781244  0.72458057  0.72159525    -0.11090
C1222       C  0.74253845  0.69607935  0.74895051     0.03580
C1223       C  0.79197241  0.68174897  0.75437981    -0.10510
H1224       H  0.85363219  0.72559658  0.68603813     0.09170
H1225       H  0.69995299  0.73410583  0.71599760     0.06700
H1226       H  0.79704387  0.65921770  0.77471314     0.06550
C1227       C  0.86164272  0.60763202  0.51706108     0.03590
C1228       C  0.88743399  0.60252699  0.48955528    -0.12560
C1229       C  0.94099505  0.59931745  0.49131343     0.01090
C1230       C  0.96505656  0.59332425  0.52099777    -0.11090
C1231       C  0.93397289  0.58935776  0.54824448     0.03580
C1232       C  0.88005391  0.59014790  0.54508703    -0.10510
H1233       H  0.87075565  0.61211240  0.46735769     0.09170
H1234       H  0.00874024  0.59915201  0.52331894     0.06700
H1235       H  0.85942667  0.59139894  0.56666790     0.06550
C1236       C  0.70261833  0.54379417  0.80472127     0.03590
C1237       C  0.71151055  0.56512591  0.83545089    -0.12560
C1238       C  0.68230859  0.59957532  0.84305029     0.01090
C1239       C  0.66243804  0.62466987  0.81864214    -0.11090
C1240       C  0.68839889  0.62900666  0.78986725     0.03580
C1241       C  0.69860948  0.58038139  0.78049091    -0.10510
H1242       H  0.72706500  0.54571409  0.85444147     0.09170
H1243       H  0.63587943  0.64875212  0.82381841     0.06700
H1244       H  0.70195904  0.57099536  0.75616649     0.06550
C1245       C  0.69226638  0.68031693  0.77011687    -0.02030
C1246       C  0.68560310  0.48428278  0.80388690     0.03590
C1247       C  0.66511474  0.46105205  0.83238428    -0.12560
C1248       C  0.68558207  0.42194504  0.84407125     0.01090
C1249       C  0.71150873  0.39689228  0.82348316    -0.11090
C1250       C  0.69828085  0.39779331  0.79117757     0.03580
C1251       C  0.69492396  0.44859847  0.78084488    -0.10510
H1252       H  0.64381176  0.47979059  0.84819955     0.09170
H1253       H  0.73281674  0.37014926  0.83284517     0.06700
H1254       H  0.69974860  0.46002156  0.75663777     0.06550
C1255       C  0.69152285  0.53743825  0.23780336     0.03590
C1256       C  0.67506571  0.55265072  0.20829560    -0.12560
C1257       C  0.69782525  0.60228745  0.19836929     0.01090
C1258       C  0.71919290  0.64033395  0.22112362    -0.11090
C1259       C  0.70313773  0.63018415  0.25246851     0.03580
C1260       C  0.69904510  0.57688592  0.26189813    -0.10510
H1261       H  0.65221771  0.52459581  0.19111000     0.09170
H1262       H  0.73833644  0.67930761  0.21359160     0.06700
H1263       H  0.70165890  0.56671354  0.28625861     0.06550
O1264       O  0.71213073  0.39991127  0.89468505    -0.73970
O1265       O  0.68988104  0.62855523  0.95692795    -0.74000
O1266       O  0.71330357  0.63542124  0.89363107    -0.74050
O1267       O  0.68540182  0.39137862  0.95804915    -0.74100
O1268       O  0.93133980  0.36882824  0.94207052    -0.74030
O1269       O  0.95744133  0.61004767  0.88177365    -0.74010
O1270       O  0.93441315  0.60504251  0.94401598    -0.73990
O1271       O  0.95722481  0.37462774  0.88033437    -0.74050
Ni1272     Ni  0.70357076  0.34816539  0.92632324     1.25410
Ni1273     Ni  0.94204750  0.65543083  0.91165284     1.25360
C1274       C  0.67291105  0.40029163  0.87528375     0.88210
C1275       C  0.64103116  0.60325195  0.96247729     0.88140
C1276       C  0.67297806  0.61268568  0.87522794     0.88170
C1277       C  0.63540448  0.39030300  0.96208238     0.88340
C1278       C  0.70042262  0.48276957  0.23766464     0.03590
C1279       C  0.70520942  0.46348872  0.20733606    -0.12560
C1280       C  0.67377830  0.41432084  0.19971817     0.01090
C1281       C  0.65854290  0.37916949  0.22405687    -0.11090
C1282       C  0.68648741  0.39079865  0.25342330     0.03580
C1283       C  0.69815283  0.44534808  0.26224989    -0.10510
H1284       H  0.72193479  0.48905994  0.18832129     0.09170
H1285       H  0.63446161  0.34006071  0.21856066     0.06700
H1286       H  0.70421230  0.45776330  0.28649038     0.06550
O1287       O  0.72233263  0.64429026  0.14978812    -0.73870
O1288       O  0.68090987  0.39228718  0.08497063    -0.74000
O1289       O  0.70495712  0.40261133  0.14916832    -0.74050
O1290       O  0.69716353  0.63331710  0.08513168    -0.74100
O1291       O  0.94318094  0.59919651  0.09594801    -0.74030
O1292       O  0.95112581  0.36596667  0.15941836    -0.74010
O1293       O  0.92693319  0.35861377  0.09598818    -0.73990
O1294       O  0.96782075  0.60764534  0.15852867    -0.74050
Ni1295     Ni  0.70471642  0.68613363  0.11684684     1.25410
Ni1296     Ni  0.94422916  0.31507497  0.12768885     1.25360
C1297       C  0.68479104  0.61704211  0.16672415     0.88210
C1298       C  0.63012766  0.38518818  0.07828913     0.88140
C1299       C  0.66440801  0.39584503  0.16720554     0.88170
C1300       C  0.65013114  0.60229817  0.07850419     0.88340
C1301       C  0.57519914  0.50179649  0.02013572     0.03590
C1302       C  0.58708258  0.53001905  0.99236482    -0.12560
C1303       C  0.62967193  0.57519500  0.99195284     0.01090
C1304       C  0.65656009  0.59635714  0.02027826    -0.11090
C1305       C  0.63823782  0.57316235  0.04884203     0.03580
C1306       C  0.59739577  0.52651435  0.04849852    -0.10510
H1307       H  0.56700120  0.51448323  0.97034467     0.09170
H1308       H  0.68728708  0.63323281  0.02028201     0.06700
H1309       H  0.58490819  0.50857431  0.07073480     0.06550
C1310       C  0.55545661  0.44411933  0.01857009     0.03590
C1311       C  0.56925211  0.42303733  0.99107483    -0.12560
C1312       C  0.61771200  0.40790939  0.99146487     0.01090
C1313       C  0.64138628  0.40015731  0.02073090    -0.11090
C1314       C  0.61308942  0.40323416  0.04828280     0.03580
C1315       C  0.56493282  0.41872823  0.04595533    -0.10510
H1316       H  0.55022948  0.42903332  0.96884680     0.09170
H1317       H  0.67770078  0.38660177  0.02181374     0.06700
H1318       H  0.54400121  0.42295544  0.06705745     0.06550
C1319       C  0.69558257  0.34369117  0.27372916    -0.02030
C1320       C  0.83207055  0.64773573  0.51899765     0.03590
C1321       C  0.84156051  0.69024121  0.49879740    -0.12560
C1322       C  0.80178587  0.71726901  0.49649070     0.01090
C1323       C  0.77446481  0.72250226  0.52423388    -0.11090
C1324       C  0.77686976  0.68880041  0.54939697     0.03580
C1325       C  0.79777141  0.64683393  0.54344501    -0.10510
H1326       H  0.86888564  0.69296625  0.47961883     0.09170
H1327       H  0.74618755  0.74618306  0.52455595     0.06700
H1328       H  0.78728680  0.61294715  0.55801698     0.06550
C1329       C  0.88696620  0.99755407  0.31273023     0.03590
C1330       C  0.89559519  0.97042936  0.33972135    -0.12560
C1331       C  0.94435494  0.95728416  0.34523942     0.01090
C1332       C  0.98082282  0.62793862  0.32093839    -0.11090
C1333       C  0.97657714  0.65698027  0.29390677     0.03580
C1334       C  0.92760208  0.67394643  0.28982752    -0.10510
H1335       H  0.86766713  0.96598493  0.35877151     0.09170
H1336       H  0.01865793  0.61811671  0.32605550     0.06700
H1337       H  0.92183762  0.69743129  0.27018648     0.06550
C1338       C  0.84105686  0.02357434  0.31315367     0.03590
C1339       C  0.79835838  0.01483754  0.28990352    -0.12560
C1340       C  0.74909733  0.02993502  0.29483322     0.01090
C1341       C  0.74641925  0.05660563  0.32297834    -0.11090
C1342       C  0.78518948  0.05956928  0.34741239     0.03580
C1343       C  0.83432168  0.04850003  0.34116553    -0.10510
H1344       H  0.80275007  0.99354514  0.26911601     0.09170
H1345       H  0.70865382  0.06537728  0.32837175     0.06700
H1346       H  0.86404714  0.05188210  0.36036254     0.06550
O1347       O  0.96599126  0.67273718  0.39191961    -0.73970
O1348       O  0.73820205  0.73270687  0.45696357    -0.74000
O1349       O  0.73278022  0.73699019  0.39160847    -0.74050
O1350       O  0.97213415  0.66707156  0.45564030    -0.74100
O1351       O  0.00490798  0.93164410  0.45181831    -0.74030
O1352       O  0.76730006  0.00245857  0.38953879    -0.74010
O1353       O  0.77048705  0.99723240  0.45251092    -0.73990
O1354       O  0.00057064  0.93858363  0.38707484    -0.74050
Ni1355     Ni  0.68443332  0.70496022  0.42421259     1.25410
Ni1356     Ni  0.72035207  0.96515991  0.42021339     1.25360
C1357       C  0.96903209  0.96546518  0.37714751     0.88210
C1358       C  0.76979344  0.03927762  0.46664546     0.88140
C1359       C  0.76293188  0.71217133  0.37863456     0.88170
C1360       C  0.97444398  0.62217714  0.46492789     0.88340
C1361       C  0.88030708  0.00370631  0.73203643     0.03590
C1362       C  0.88489275  0.97601270  0.70459693    -0.12560
C1363       C  0.93184081  0.96104674  0.69905740     0.01090
C1364       C  0.97101290  0.96600170  0.72324972    -0.11090
C1365       C  0.97180062  0.99810308  0.74960840     0.03580
C1366       C  0.92473110  0.01587922  0.75435519    -0.10510
H1367       H  0.85430237  0.97104591  0.68573915     0.09170
H1368       H  0.00692348  0.95346554  0.71855381     0.06700
H1369       H  0.92329824  0.04026101  0.77432349     0.06550
O1370       O  0.71910900  0.73252748  0.65109514    -0.73970
O1371       O  0.95514441  0.65458780  0.58711393    -0.74000
O1372       O  0.95081565  0.67006441  0.65065272    -0.74050
O1373       O  0.72042546  0.71691040  0.58617960    -0.74100
O1374       O  0.75346329  0.98369769  0.59790317    -0.74030
O1375       O  0.98139567  0.93397974  0.65905306    -0.74010
O1376       O  0.98862707  0.92008220  0.59469348    -0.73990
O1377       O  0.74905825  0.99617340  0.65986971    -0.74050
Ni1378     Ni  0.66844329  0.69610979  0.61854556     1.25410
Ni1379     Ni  0.70243325  0.95605270  0.62821606     1.25360
C1380       C  0.74829746  0.04218376  0.66710775     0.88210
C1381       C  0.96027076  0.94381919  0.57840606     0.88140
C1382       C  0.95253612  0.96388539  0.66707103     0.88170
C1383       C  0.74980844  0.68689782  0.57952601     0.88340
C1384       C  0.83386378  0.02794590  0.73223975     0.03590
C1385       C  0.82490416  0.05393471  0.70471610    -0.12560
C1386       C  0.77420657  0.06200020  0.69760167     0.01090
C1387       C  0.73783587  0.05795322  0.72160676    -0.11090
C1388       C  0.74255072  0.02943212  0.74895518     0.03580
C1389       C  0.79198268  0.01509751  0.75438377    -0.10510
H1390       H  0.85368173  0.05901562  0.68606382     0.09170
H1391       H  0.69997536  0.06747495  0.71600682     0.06700
H1392       H  0.79704479  0.99254819  0.77471037     0.06550
C1393       C  0.86168902  0.94115287  0.51705589     0.03590
C1394       C  0.88747790  0.93603758  0.48955198    -0.12560
C1395       C  0.94102636  0.93279303  0.49131200     0.01090
C1396       C  0.96507810  0.92678319  0.52099632    -0.11090
C1397       C  0.93399826  0.92284287  0.54824275     0.03580
C1398       C  0.88009134  0.92367228  0.54508520    -0.10510
H1399       H  0.87080965  0.94563451  0.46735419     0.09170
H1400       H  0.00875716  0.93258012  0.52331748     0.06700
H1401       H  0.85946984  0.92494869  0.56666561     0.06550
C1402       C  0.70262040  0.87712558  0.80470981     0.03590
C1403       C  0.71151712  0.89845267  0.83544080    -0.12560
C1404       C  0.68231954  0.93290392  0.84304485     0.01090
C1405       C  0.66244734  0.95800336  0.81863963    -0.11090
C1406       C  0.68840190  0.96234291  0.78986261     0.03580
C1407       C  0.69860873  0.91371725  0.78048238    -0.10510
H1408       H  0.72707078  0.87903564  0.85442911     0.09170
H1409       H  0.63588892  0.98208414  0.82381923     0.06700
H1410       H  0.70195402  0.90433381  0.75615713     0.06550
C1411       C  0.69226956  0.01365752  0.77011488    -0.02030
C1412       C  0.68560119  0.81761320  0.80387252     0.03590
C1413       C  0.66510787  0.79438171  0.83236887    -0.12560
C1414       C  0.68558149  0.75528070  0.84405971     0.01090
C1415       C  0.71151602  0.73023028  0.82347433    -0.11090
C1416       C  0.69829067  0.73112547  0.79116799     0.03580
C1417       C  0.69493104  0.78192879  0.78083259    -0.10510
H1418       H  0.64380130  0.81312008  0.84818208     0.09170
H1419       H  0.73282837  0.70349260  0.83283893     0.06700
H1420       H  0.69976030  0.79334955  0.75662516     0.06550
C1421       C  0.69151692  0.87077007  0.23781057     0.03590
C1422       C  0.67505261  0.88597828  0.20830310    -0.12560
C1423       C  0.69781500  0.93561307  0.19837323     0.01090
C1424       C  0.71918935  0.97366226  0.22112519    -0.11090
C1425       C  0.70313761  0.96351837  0.25247107     0.03580
C1426       C  0.69904522  0.91022156  0.26190348    -0.10510
H1427       H  0.65220491  0.85791985  0.19111920     0.09170
H1428       H  0.73833428  0.01263435  0.21359090     0.06700
H1429       H  0.70166550  0.90005375  0.28626442     0.06550
O1430       O  0.71213777  0.73326465  0.89467646    -0.73970
O1431       O  0.68989195  0.96187199  0.95692711    -0.74000
O1432       O  0.71331448  0.96874041  0.89362861    -0.74050
O1433       O  0.68541441  0.72473507  0.95804280    -0.74100
O1434       O  0.93133569  0.70214347  0.94207159    -0.74030
O1435       O  0.95746493  0.94338242  0.88178142    -0.74010
O1436       O  0.93443743  0.93837983  0.94402174    -0.73990
O1437       O  0.95721828  0.70795025  0.88033504    -0.74050
Ni1438     Ni  0.70359097  0.68152430  0.92631786     1.25410
Ni1439     Ni  0.94207634  0.98876846  0.91165942     1.25360
C1440       C  0.67291515  0.73363359  0.87527463     0.88210
C1441       C  0.64104183  0.93656898  0.96247640     0.88140
C1442       C  0.67298928  0.94600702  0.87522451     0.88170
C1443       C  0.63541475  0.72364945  0.96207741     0.88340
C1444       C  0.70042985  0.81610622  0.23767118     0.03590
C1445       C  0.70522713  0.79683301  0.20734211    -0.12560
C1446       C  0.67380283  0.74766458  0.19971956     0.01090
C1447       C  0.65856688  0.71250648  0.22405507    -0.11090
C1448       C  0.68650097  0.72413278  0.25342467     0.03580
C1449       C  0.69815766  0.77868043  0.26225450    -0.10510
H1450       H  0.72195083  0.82241038  0.18832967     0.09170
H1451       H  0.63449236  0.67339685  0.21855491     0.06700
H1452       H  0.70420773  0.79109077  0.28649605     0.06550
O1453       O  0.72232623  0.97761194  0.14979110    -0.73870
O1454       O  0.68093658  0.72564543  0.08496816    -0.74000
O1455       O  0.70498544  0.73597462  0.14916712    -0.74050
O1456       O  0.69716155  0.96663805  0.08513369    -0.74100
O1457       O  0.94319658  0.93253019  0.09594527    -0.74030
O1458       O  0.95111269  0.69928691  0.15941978    -0.74010
O1459       O  0.92692513  0.69193740  0.09598892    -0.73990
O1460       O  0.96783272  0.94097975  0.15852487    -0.74050
Ni1461     Ni  0.70471462  0.01945579  0.11684833     1.25410
Ni1462     Ni  0.94420999  0.64839378  0.12769011     1.25360
C1463       C  0.68478293  0.95036527  0.16672681     0.88210
C1464       C  0.63015234  0.71853369  0.07828693     0.88140
C1465       C  0.66443592  0.72919709  0.16720505     0.88170
C1466       C  0.65012863  0.93562076  0.07850518     0.88340
C1467       C  0.57519894  0.83511927  0.02013518     0.03590
C1468       C  0.58708830  0.86333997  0.99236408    -0.12560
C1469       C  0.62967993  0.90851408  0.99195268     0.01090
C1470       C  0.65656419  0.92967736  0.02027900    -0.11090
C1471       C  0.63823597  0.90648494  0.04884268     0.03580
C1472       C  0.59739100  0.85983865  0.04849834    -0.10510
H1473       H  0.56700982  0.84780332  0.97034337     0.09170
H1474       H  0.68729272  0.96655209  0.02028313     0.06700
H1475       H  0.58489810  0.84189998  0.07073427     0.06550
C1476       C  0.55545516  0.77744175  0.01857026     0.03590
C1477       C  0.56924921  0.75635964  0.99107463    -0.12560
C1478       C  0.61771859  0.74124756  0.99146170     0.01090
C1479       C  0.64140114  0.73350248  0.02072701    -0.11090
C1480       C  0.61310525  0.73657301  0.04828053     0.03580
C1481       C  0.56494025  0.75205341  0.04595473    -0.10510
H1482       H  0.55021839  0.76234888  0.96884784     0.09170
H1483       H  0.67772214  0.71995712  0.02180824     0.06700
H1484       H  0.54400816  0.75627546  0.06705758     0.06550
C1485       C  0.69559304  0.67702257  0.27372974    -0.02030
C1486       C  0.83211224  0.98125049  0.51898639     0.03590
C1487       C  0.84162378  0.02377196  0.49879777    -0.12560
C1488       C  0.80184319  0.05079323  0.49648541     0.01090
C1489       C  0.77451468  0.05601943  0.52422833    -0.11090
C1490       C  0.77690570  0.02230156  0.54938568     0.03580
C1491       C  0.79778839  0.98032785  0.54342252    -0.10510
H1492       H  0.86896368  0.02650617  0.47962563     0.09170
H1493       H  0.74624587  0.07970850  0.52455362     0.06700
H1494       H  0.78728523  0.94642579  0.55798212     0.06550
loop_ 
_geom_bond_atom_site_label_1 
_geom_bond_atom_site_label_2 
_geom_bond_distance 
_geom_bond_site_symmetry_2 
_ccdc_geom_bond_type 
C1            C2   1.405       .  A
C1          C172   1.421       .  A
C1           C10   1.518       .  S
C2            C3   1.395       .  A
C2            H7   1.084       .  S
C3          C170   1.401       .  A
C3           C29   1.472       .  S
C4            C5   1.410       .  A
C4          C335   1.401       .  A
C4            H8   1.083       .  S
C5            C6   1.447   1_565  A
C5          C655   1.581   1_565  S
C6          C333   1.421   1_545  A
C6            H9   1.079       .  S
C10          C11   1.419       .  A
C10          C15   1.408       .  A
C11          C12   1.443       .  A
C11          H16   1.080       .  S
C12          C13   1.411       .  A
C12         C323   1.574       .  S
C13          C14   1.400       .  A
C13          H17   1.084       .  S
C14          C15   1.398       .  A
C14         C197   1.474       .  S
C15          H18   1.084       .  S
O19        Ni525   1.909       .  S
O19         C361   1.282   1_545  A
O20         Ni27   1.925       .  S
O20         C362   1.278       .  A
O21         Ni27   1.933       .  S
O21          C31   1.284       .  A
O22        Ni525   1.910       .  S
O22          C32   1.284   1_545  A
O23        Ni526   1.917       .  S
O23         C198   1.277       .  A
O24         Ni28   1.898       .  S
O24         C197   1.279       .  A
O25         Ni28   1.886       .  S
O25          C30   1.284       .  A
O26        Ni526   1.919       .  S
O26          C29   1.281       .  A
Ni27       O1015   1.910   1_455  S
Ni27       O1018   1.909   1_455  S
Ni27       Ni360   2.391   1_545  S
Ni28       O1019   1.917       .  S
Ni28       O1022   1.919       .  S
Ni28       Ni193   2.391       .  S
C29         O185   1.282       .  A
C30         C160   1.476       .  S
C30         O186   1.278       .  A
C31         C346   1.474       .  S
C31         O356   1.279       .  A
C32         C399   1.467       .  S
C32         O355   1.277       .  A
C33          C34   1.412       .  A
C33          C38   1.423       .  A
C33          C56   1.499       .  S
C34          C35   1.390       .  A
C34          H39   1.084       .  S
C35          C36   1.393       .  A
C35          C54   1.475       .  S
C36          C37   1.413       .  A
C36          H40   1.083       .  S
C37          C38   1.428       .  A
C37         C581   1.561       .  S
C38          H41   1.082       .  S
O42         Ni50   1.936       .  S
O42         C384   1.284       .  A
O43        Ni548   1.905   1_565  S
O43         C385   1.285       .  A
O44        Ni548   1.918       .  S
O44         C386   1.282   1_545  A
O45         Ni50   1.923       .  S
O45          C55   1.278       .  A
O46         Ni51   1.873       .  S
O46         C221   1.280       .  A
O47        Ni549   1.916       .  S
O47          C54   1.281       .  A
O48        Ni549   1.917       .  S
O48          C53   1.276       .  A
O49         Ni51   1.895       .  S
O49          C52   1.278       .  A
Ni50       O1039   1.905   1_445  S
Ni50       O1040   1.918   1_455  S
Ni50       Ni383   2.390   1_545  S
Ni51       O1043   1.916   1_455  S
Ni51       O1044   1.917   1_455  S
Ni51       Ni216   2.390       .  S
C52          C58   1.471       .  S
C52         O208   1.284       .  A
C53          C69   1.470       .  S
C53         O209   1.285       .  A
C54         O210   1.282       .  A
C55         C494   1.474       .  S
C55         O378   1.280   1_545  A
C56          C57   1.410       .  A
C56          C61   1.421       .  A
C57          C58   1.392       .  A
C57          H62   1.084       .  S
C58          C59   1.390       .  A
C59          C60   1.415       .  A
C59          H63   1.083       .  S
C60          C61   1.427       .  A
C60          C83   1.556       .  S
C61          H64   1.082       .  S
C65          C66   1.389       .  A
C65          C70   1.398       .  A
C65         C158   1.476       .  S
C66          C67   1.392       .  A
C66          H71   1.085       .  S
C67          C68   1.418       .  A
C67         C198   1.467       .  S
C68          C69   1.417       .  A
C68          H72   1.083       .  S
C69          C70   1.383       .  A
C70          H73   1.081       .  S
C74          C75   1.417       .  A
C74          C79   1.446       .  A
C74          C84   1.536       .  S
C75          C76   1.380       .  A
C75          H80   1.085       .  S
C76          C77   1.395   1_455  A
C76         C114   1.461       .  S
C77          C78   1.405   1_655  A
C77          H81   1.083       .  S
C78          C79   1.456       .  A
C78          C83   1.596       .  S
C79          H82   1.080       .  S
C83        C1033   1.561   1_455  S
C83         C254   1.601       .  S
C84          C85   1.417   1_455  A
C84          C89   1.442       .  A
C85          C86   1.380   1_655  A
C85          H90   1.085       .  S
C86          C87   1.393       .  A
C86         C112   1.464       .  S
C87          C88   1.410       .  A
C87          H91   1.081       .  S
C88          C89   1.456       .  A
C88         C415   1.601       .  S
C89          H92   1.079       .  S
C93          C94   1.410       .  A
C93          C98   1.446       .  A
C93         C116   1.544       .  S
C94          C95   1.373       .  A
C94          H99   1.085   1_455  S
C95          C96   1.394       .  A
C95         C135   1.460       .  S
C96          C97   1.417       .  A
C96         H100   1.081       .  S
C97          C98   1.463       .  A
C97         C323   1.607       .  S
C98         H101   1.079       .  S
O102       Ni110   1.912       .  S
O102        C112   1.279       .  A
O103       Ni276   1.900       .  S
O103        C113   1.276   1_455  A
O104       Ni276   1.930       .  S
O104        C114   1.285       .  A
O105       Ni110   1.930       .  S
O105        C115   1.285   1_455  A
O106       Ni443   1.882   1_545  S
O106        C613   1.274       .  A
O107       Ni111   1.886       .  S
O107        C612   1.274       .  A
O108       Ni111   1.910       .  S
O108        C611   1.283       .  A
O109       Ni443   1.913   1_545  S
O109        C610   1.281       .  A
Ni110       O435   1.900   1_545  S
Ni110       O436   1.930   1_545  S
Ni110     Ni1439   2.394   1_445  S
Ni111       O272   1.882       .  S
Ni111       O275   1.913       .  S
Ni111      Ni774   2.394       .  S
C112       O1105   1.281   1_455  A
C113        C141   1.463       .  S
C113       O1104   1.283       .  A
C114       O1103   1.273   1_455  A
C115        C150   1.467       .  S
C115       O1102   1.274       .  A
C116        C117   1.415       .  A
C116        C121   1.444       .  A
C117        C118   1.377       .  A
C117        H122   1.084       .  S
C118        C119   1.396   1_455  A
C118        C137   1.463   1_455  S
C119        C120   1.412   1_655  A
C119        H123   1.083       .  S
C120        C121   1.459       .  A
C120        C157   1.596       .  S
C121        H124   1.080       .  S
O125       Ni133   1.916       .  S
O125        C135   1.281       .  A
O126       Ni465   1.907       .  S
O126        C136   1.279   1_455  A
O127       Ni465   1.919       .  S
O127        C137   1.283   1_455  A
O128       Ni133   1.926       .  S
O128        C138   1.283   1_455  A
O129       Ni300   1.886       .  S
O129        C636   1.277       .  A
O130       Ni134   1.892   1_545  S
O130        C635   1.276       .  A
O131       Ni134   1.906   1_545  S
O131        C634   1.280       .  A
O132       Ni300   1.896       .  S
O132        C633   1.278       .  A
Ni133       O292   1.907       .  S
Ni133       O293   1.919       .  S
Ni133     Ni1296   2.395   1_455  S
Ni134       O461   1.886       .  S
Ni134       O464   1.896       .  S
Ni134      Ni963   2.395   1_565  S
C135       O1128   1.278   1_455  A
C136        C152   1.463       .  S
C136       O1127   1.280       .  A
C137       O1126   1.276       .  A
C138        C143   1.466       .  S
C138       O1125   1.277       .  A
C139        C140   1.404   1_554  A
C139        C144   1.405       .  A
C139        C148   1.492       .  S
C140        C141   1.391       .  A
C140        H145   1.082       .  S
C141        C142   1.409   1_556  A
C142        C143   1.404       .  A
C142        H146   1.082   1_655  S
C143        C144   1.393       .  A
C144        H147   1.082       .  S
C148        C149   1.399   1_554  A
C148        C153   1.400       .  A
C149        C150   1.402       .  A
C149        H154   1.083       .  S
C150        C151   1.409   1_556  A
C151        C152   1.414       .  A
C151        H155   1.083   1_655  S
C152        C153   1.400       .  A
C153        H156   1.084       .  S
C157       C1001   1.581   1_445  S
C157        C344   1.574       .  S
C157        C429   1.607   1_545  S
C158        C159   1.403       .  A
C158        C163   1.380       .  A
C159        C160   1.399       .  A
C159        H164   1.082       .  S
C160        C161   1.420       .  A
C161        C162   1.415       .  A
C161        H165   1.084       .  S
C162        C163   1.397       .  A
C162        C221   1.474       .  S
C163        H166   1.079       .  S
C167        C168   1.406       .  A
C167        C338   1.421       .  A
C167        C176   1.518       .  S
C168        C169   1.395       .  A
C168        H173   1.084       .  S
C169        C336   1.401       .  A
C169        C195   1.472       .  S
C170        C171   1.410       .  A
C170        H174   1.083       .  S
C171        C172   1.447       .  A
C171        C821   1.581       .  S
C172        H175   1.079       .  S
C176        C177   1.419       .  A
C176        C181   1.408       .  A
C177        C178   1.443       .  A
C177        H182   1.080       .  S
C178        C179   1.411       .  A
C178        C489   1.574       .  S
C179        C180   1.400       .  A
C179        H183   1.084       .  S
C180        C181   1.398       .  A
C180        C363   1.474       .  S
C181        H184   1.084       .  S
O185       Ni691   1.909       .  S
O186       Ni193   1.925       .  S
O187       Ni193   1.933       .  S
O187        C197   1.284       .  A
O188       Ni691   1.910       .  S
O188        C198   1.284       .  A
O189       Ni692   1.917       .  S
O189        C364   1.277       .  A
O190       Ni194   1.898       .  S
O190        C363   1.279       .  A
O191       Ni194   1.886       .  S
O191        C196   1.284       .  A
O192       Ni692   1.919       .  S
O192        C195   1.281       .  A
Ni193      O1181   1.910   1_455  S
Ni193      O1184   1.909   1_455  S
Ni194      O1185   1.917       .  S
Ni194      O1188   1.918       .  S
Ni194      Ni359   2.391       .  S
C195        O351   1.282       .  A
C196        C326   1.476       .  S
C196        O352   1.278       .  A
C199        C200   1.412       .  A
C199        C204   1.423       .  A
C199        C222   1.499       .  S
C200        C201   1.390       .  A
C200        H205   1.084       .  S
C201        C202   1.393       .  A
C201        C220   1.475       .  S
C202        C203   1.413       .  A
C202        H206   1.083       .  S
C203        C204   1.428       .  A
C203        C747   1.561       .  S
C204        H207   1.082       .  S
O208       Ni216   1.936       .  S
O209       Ni714   1.905       .  S
O210       Ni714   1.918       .  S
O211       Ni216   1.923       .  S
O211        C221   1.278       .  A
O212       Ni217   1.873       .  S
O212        C387   1.280       .  A
O213       Ni715   1.916       .  S
O213        C220   1.281       .  A
O214       Ni715   1.917       .  S
O214        C219   1.276       .  A
O215       Ni217   1.895       .  S
O215        C218   1.278       .  A
Ni216      O1205   1.905   1_455  S
Ni216      O1206   1.918   1_455  S
Ni217      O1209   1.916   1_455  S
Ni217      O1210   1.917   1_455  S
Ni217      Ni382   2.390       .  S
C218        C224   1.471       .  S
C218        O374   1.284       .  A
C219        C235   1.470       .  S
C219        O375   1.285       .  A
C220        O376   1.282       .  A
C222        C223   1.410       .  A
C222        C227   1.421       .  A
C223        C224   1.392       .  A
C223        H228   1.084       .  S
C224        C225   1.390       .  A
C225        C226   1.415       .  A
C225        H229   1.083       .  S
C226        C227   1.427       .  A
C226        C249   1.556       .  S
C227        H230   1.082       .  S
C231        C232   1.389       .  A
C231        C236   1.398       .  A
C231        C324   1.476       .  S
C232        C233   1.392       .  A
C232        H237   1.085       .  S
C233        C234   1.418       .  A
C233        C364   1.467       .  S
C234        C235   1.417       .  A
C234        H238   1.083       .  S
C235        C236   1.383       .  A
C236        H239   1.081       .  S
C240        C241   1.417       .  A
C240        C245   1.446       .  A
C240        C250   1.537       .  S
C241        C242   1.380       .  A
C241        H246   1.085       .  S
C242        C243   1.395   1_455  A
C242        C280   1.461       .  S
C243        C244   1.405   1_655  A
C243        H247   1.083       .  S
C244        C245   1.457       .  A
C244        C249   1.596       .  S
C245        H248   1.080       .  S
C249       C1199   1.561   1_455  S
C249        C420   1.601       .  S
C250        C251   1.417   1_455  A
C250        C255   1.442       .  A
C251        C252   1.380   1_655  A
C251        H256   1.085       .  S
C252        C253   1.393       .  A
C252        C278   1.464       .  S
C253        C254   1.410       .  A
C253        H257   1.081       .  S
C254        C255   1.456       .  A
C255        H258   1.079       .  S
C259        C260   1.410       .  A
C259        C264   1.446       .  A
C259        C282   1.544       .  S
C260        C261   1.373       .  A
C260        H265   1.085   1_455  S
C261        C262   1.394       .  A
C261        C301   1.460       .  S
C262        C263   1.417       .  A
C262        H266   1.081       .  S
C263        C264   1.463       .  A
C263        C489   1.607       .  S
C264        H267   1.079       .  S
O268       Ni276   1.912       .  S
O268        C278   1.279       .  A
O269       Ni442   1.900       .  S
O269        C279   1.276   1_455  A
O270       Ni442   1.930       .  S
O270        C280   1.285       .  A
O271       Ni276   1.930       .  S
O271        C281   1.285   1_455  A
O272        C779   1.274       .  A
O273       Ni277   1.886       .  S
O273        C778   1.273       .  A
O274       Ni277   1.910       .  S
O274        C777   1.283       .  A
O275        C776   1.281       .  A
Ni276     Ni1107   2.394   1_455  S
Ni277       O438   1.882       .  S
Ni277       O441   1.913       .  S
Ni277      Ni940   2.394       .  S
C278       O1271   1.281   1_455  A
C279        C307   1.463       .  S
C279       O1270   1.283       .  A
C280       O1269   1.273   1_455  A
C281        C316   1.467       .  S
C281       O1268   1.274       .  A
C282        C283   1.415       .  A
C282        C287   1.444       .  A
C283        C284   1.377       .  A
C283        H288   1.084       .  S
C284        C285   1.396   1_455  A
C284        C303   1.463   1_455  S
C285        C286   1.412   1_655  A
C285        H289   1.083       .  S
C286        C287   1.459       .  A
C286        C323   1.596       .  S
C287        H290   1.080       .  S
O291       Ni299   1.916       .  S
O291        C301   1.281       .  A
O292        C302   1.279   1_455  A
O293        C303   1.283   1_455  A
O294       Ni299   1.926       .  S
O294        C304   1.283   1_455  A
O295       Ni466   1.886       .  S
O295        C802   1.277       .  A
O296       Ni300   1.892       .  S
O296        C801   1.276       .  A
O297       Ni300   1.906       .  S
O297        C800   1.280       .  A
O298       Ni466   1.896       .  S
O298        C799   1.278       .  A
Ni299       O458   1.907       .  S
Ni299       O459   1.919       .  S
Ni299     Ni1462   2.395   1_455  S
Ni300      Ni631   2.395       .  S
C301       O1294   1.278   1_455  A
C302        C318   1.463       .  S
C302       O1293   1.280       .  A
C303       O1292   1.276       .  A
C304        C309   1.466       .  S
C304       O1291   1.277       .  A
C305        C306   1.404   1_554  A
C305        C310   1.405       .  A
C305        C314   1.492       .  S
C306        C307   1.391       .  A
C306        H311   1.082       .  S
C307        C308   1.409   1_556  A
C308        C309   1.404       .  A
C308        H312   1.082   1_655  S
C309        C310   1.393       .  A
C310        H313   1.082       .  S
C314        C315   1.399   1_554  A
C314        C319   1.400       .  A
C315        C316   1.402       .  A
C315        H320   1.083       .  S
C316        C317   1.409   1_556  A
C317        C318   1.414       .  A
C317        H321   1.083   1_655  S
C318        C319   1.400       .  A
C319        H322   1.084       .  S
C323       C1167   1.581   1_455  S
C324        C325   1.403       .  A
C324        C329   1.380       .  A
C325        C326   1.399       .  A
C325        H330   1.082       .  S
C326        C327   1.420       .  A
C327        C328   1.415       .  A
C327        H331   1.084       .  S
C328        C329   1.397       .  A
C328        C387   1.474       .  S
C329        H332   1.079       .  S
C333        C334   1.405       .  A
C333        C342   1.518   1_565  S
C334        C335   1.395       .  A
C334        H339   1.084       .  S
C335        C361   1.472       .  S
C336        C337   1.410       .  A
C336        H340   1.083       .  S
C337        C338   1.447       .  A
C337        C987   1.581       .  S
C338        H341   1.079       .  S
C342        C343   1.419       .  A
C342        C347   1.408       .  A
C343        C344   1.443       .  A
C343        H348   1.080   1_545  S
C344        C345   1.411       .  A
C345        C346   1.400       .  A
C345        H349   1.084       .  S
C346        C347   1.398       .  A
C347        H350   1.084       .  S
O351       Ni857   1.909       .  S
O352       Ni359   1.925       .  S
O353       Ni359   1.933       .  S
O353        C363   1.284       .  A
O354       Ni857   1.910       .  S
O354        C364   1.284       .  A
O355       Ni858   1.917       .  S
O356       Ni360   1.898   1_545  S
O357       Ni360   1.886       .  S
O357        C362   1.284   1_565  A
O358       Ni858   1.919       .  S
O358        C361   1.281       .  A
Ni359      O1347   1.910   1_455  S
Ni359      O1350   1.909   1_455  S
Ni360      O1351   1.917       .  S
Ni360      O1354   1.918       .  S
C362        C492   1.476       .  S
C365        C366   1.412   1_545  A
C365        C370   1.423       .  A
C365        C388   1.498       .  S
C366        C367   1.390       .  A
C366        H371   1.084       .  S
C367        C368   1.393       .  A
C367        C386   1.475       .  S
C368        C369   1.413       .  A
C368        H372   1.083       .  S
C369        C370   1.427   1_565  A
C369        C913   1.561   1_565  S
C370        H373   1.082       .  S
O374       Ni382   1.936       .  S
O375       Ni880   1.905       .  S
O376       Ni880   1.918       .  S
O377       Ni382   1.923       .  S
O377        C387   1.278       .  A
O378       Ni383   1.873       .  S
O379       Ni881   1.916       .  S
O379        C386   1.281       .  A
O380       Ni881   1.917       .  S
O380        C385   1.276       .  A
O381       Ni383   1.895       .  S
O381        C384   1.278   1_565  A
Ni382      O1371   1.905   1_455  S
Ni382      O1372   1.918   1_455  S
Ni383      O1375   1.916   1_455  S
Ni383      O1376   1.917   1_455  S
C384        C390   1.471       .  S
C385        C401   1.470       .  S
C388        C389   1.410       .  A
C388        C393   1.421       .  A
C389        C390   1.392       .  A
C389        H394   1.084       .  S
C390        C391   1.390       .  A
C391        C392   1.415       .  A
C391        H395   1.083       .  S
C392        C393   1.427       .  A
C392        C415   1.556       .  S
C393        H396   1.082   1_545  S
C397        C398   1.389       .  A
C397        C402   1.398       .  A
C397        C490   1.476       .  S
C398        C399   1.392       .  A
C398        H403   1.085       .  S
C399        C400   1.418       .  A
C400        C401   1.417       .  A
C400        H404   1.083       .  S
C401        C402   1.383       .  A
C402        H405   1.081       .  S
C406        C407   1.417       .  A
C406        C411   1.446       .  A
C406        C416   1.537       .  S
C407        C408   1.380       .  A
C407        H412   1.085       .  S
C408        C409   1.395   1_455  A
C408        C446   1.461       .  S
C409        C410   1.405   1_655  A
C409        H413   1.083       .  S
C410        C411   1.457       .  A
C410        C415   1.596   1_565  S
C411        H414   1.080       .  S
C415       C1365   1.561   1_445  S
C416        C417   1.417   1_455  A
C416        C421   1.442       .  A
C417        C418   1.380   1_655  A
C417        H422   1.085       .  S
C418        C419   1.393       .  A
C418        C444   1.464       .  S
C419        C420   1.410       .  A
C419        H423   1.081       .  S
C420        C421   1.456       .  A
C421        H424   1.079       .  S
C425        C426   1.410       .  A
C425        C430   1.446       .  A
C425        C448   1.544       .  S
C426        C427   1.373       .  A
C426        H431   1.085   1_455  S
C427        C428   1.394       .  A
C427        C467   1.460       .  S
C428        C429   1.417       .  A
C428        H432   1.081   1_565  S
C429        C430   1.463       .  A
C430        H433   1.079       .  S
O434       Ni442   1.912       .  S
O434        C444   1.279       .  A
O435        C445   1.276   1_455  A
O436        C446   1.285       .  A
O437       Ni442   1.930       .  S
O437        C447   1.285   1_455  A
O438        C945   1.274       .  A
O439       Ni443   1.886       .  S
O439        C944   1.273       .  A
O440       Ni443   1.910       .  S
O440        C943   1.283       .  A
O441        C942   1.281       .  A
Ni442     Ni1273   2.394   1_455  S
Ni443      Ni608   2.394   1_565  S
C444       O1437   1.281   1_455  A
C445        C473   1.463       .  S
C445       O1436   1.283       .  A
C446       O1435   1.273   1_455  A
C447        C482   1.467       .  S
C447       O1434   1.274       .  A
C448        C449   1.415       .  A
C448        C453   1.444       .  A
C449        C450   1.377       .  A
C449        H454   1.084       .  S
C450        C451   1.396   1_455  A
C450        C469   1.463   1_455  S
C451        C452   1.412   1_655  A
C451        H455   1.083       .  S
C452        C453   1.459       .  A
C452        C489   1.596       .  S
C453        H456   1.080       .  S
O457       Ni465   1.916   1_565  S
O457        C467   1.281       .  A
O458        C468   1.279   1_455  A
O459        C469   1.283   1_455  A
O460       Ni465   1.926   1_565  S
O460        C470   1.283   1_455  A
O461        C968   1.277       .  A
O462       Ni466   1.892       .  S
O462        C967   1.276       .  A
O463       Ni466   1.906       .  S
O463        C966   1.280       .  A
O464        C965   1.278       .  A
Ni465     Ni1130   2.395   1_445  S
Ni466      Ni797   2.395       .  S
C467       O1460   1.278   1_455  A
C468        C484   1.463       .  S
C468       O1459   1.280       .  A
C469       O1458   1.276       .  A
C470        C475   1.466       .  S
C470       O1457   1.277       .  A
C471        C472   1.404   1_554  A
C471        C476   1.405       .  A
C471        C480   1.492       .  S
C472        C473   1.391       .  A
C472        H477   1.082       .  S
C473        C474   1.409   1_556  A
C474        C475   1.404       .  A
C474        H478   1.082   1_655  S
C475        C476   1.393       .  A
C476        H479   1.082       .  S
C480        C481   1.399   1_554  A
C480        C485   1.400       .  A
C481        C482   1.402       .  A
C481        H486   1.083       .  S
C482        C483   1.409   1_556  A
C483        C484   1.414       .  A
C483        H487   1.083   1_655  S
C484        C485   1.400       .  A
C485        H488   1.084       .  S
C489       C1333   1.581   1_455  S
C490        C491   1.403   1_565  A
C490        C495   1.380       .  A
C491        C492   1.399       .  A
C491        H496   1.082       .  S
C492        C493   1.420       .  A
C493        C494   1.415       .  A
C493        H497   1.084       .  S
C494        C495   1.397   1_545  A
C495        H498   1.079       .  S
C499        C500   1.406       .  A
C499        C670   1.422       .  A
C499        C508   1.518       .  S
C500        C501   1.395       .  A
C500        H505   1.084       .  S
C501        C668   1.401       .  A
C501        C527   1.472       .  S
C502        C833   1.401       .  A
C502        C503   1.410       .  A
C502        H506   1.083       .  S
C503        C504   1.447   1_565  A
C503       C1153   1.581   1_565  S
C504        C831   1.422   1_545  A
C504        H507   1.079       .  S
C508        C509   1.419       .  A
C508        C513   1.408       .  A
C509        C510   1.443       .  A
C509        H514   1.080       .  S
C510        C511   1.411       .  A
C510        C821   1.573       .  S
C511        C512   1.400       .  A
C511        H515   1.084       .  S
C512        C513   1.398       .  A
C512        C695   1.474       .  S
C513        H516   1.084       .  S
O517      Ni1023   1.909       .  S
O517        C859   1.282   1_545  A
O518       Ni525   1.924       .  S
O518        C860   1.278       .  A
O519       Ni525   1.933       .  S
O519        C529   1.284       .  A
O520      Ni1023   1.909       .  S
O520        C530   1.284   1_545  A
O521      Ni1024   1.917       .  S
O521        C696   1.277       .  A
O522       Ni526   1.898       .  S
O522        C695   1.279       .  A
O523       Ni526   1.886       .  S
O523        C528   1.284       .  A
O524      Ni1024   1.918       .  S
O524        C527   1.281       .  A
Ni525      Ni858   2.391   1_545  S
Ni526      Ni691   2.391       .  S
C527        O683   1.282       .  A
C528        C658   1.475       .  S
C528        O684   1.278       .  A
C529        C844   1.474       .  S
C529        O854   1.279       .  A
C530        C897   1.467       .  S
C530        O853   1.277       .  A
C531        C532   1.412       .  A
C531        C536   1.423       .  A
C531        C554   1.499       .  S
C532        C533   1.390       .  A
C532        H537   1.084       .  S
C533        C534   1.393       .  A
C533        C552   1.474       .  S
C534        C535   1.413       .  A
C534        H538   1.083       .  S
C535        C536   1.428       .  A
C535       C1079   1.561       .  S
C536        H539   1.082       .  S
O540       Ni548   1.936       .  S
O540        C882   1.284       .  A
O541      Ni1046   1.904   1_565  S
O541        C883   1.285       .  A
O542      Ni1046   1.918       .  S
O542        C884   1.282   1_545  A
O543       Ni548   1.923       .  S
O543        C553   1.278       .  A
O544       Ni549   1.873       .  S
O544        C719   1.280       .  A
O545      Ni1047   1.916       .  S
O545        C552   1.281       .  A
O546      Ni1047   1.917       .  S
O546        C551   1.276       .  A
O547       Ni549   1.896       .  S
O547        C550   1.278       .  A
Ni548      Ni881   2.390   1_545  S
Ni549      Ni714   2.390       .  S
C550        C556   1.471       .  S
C550        O706   1.284       .  A
C551        C567   1.469       .  S
C551        O707   1.285       .  A
C552        O708   1.282       .  A
C553        C992   1.474       .  S
C553        O876   1.280   1_545  A
C554        C555   1.410       .  A
C554        C559   1.422       .  A
C555        C556   1.392       .  A
C555        H560   1.084       .  S
C556        C557   1.390       .  A
C557        C558   1.415       .  A
C557        H561   1.083       .  S
C558        C559   1.427       .  A
C558        C581   1.556       .  S
C559        H562   1.082       .  S
C563        C564   1.389       .  A
C563        C568   1.398       .  A
C563        C656   1.476       .  S
C564        C565   1.392       .  A
C564        H569   1.085       .  S
C565        C566   1.417       .  A
C565        C696   1.467       .  S
C566        C567   1.417       .  A
C566        H570   1.083       .  S
C567        C568   1.383       .  A
C568        H571   1.081       .  S
C572        C573   1.417       .  A
C572        C577   1.446       .  A
C572        C582   1.537       .  S
C573        C574   1.380       .  A
C573        H578   1.085       .  S
C574        C575   1.395       .  A
C574        C612   1.461       .  S
C575        C576   1.405       .  A
C575        H579   1.083       .  S
C576        C577   1.456       .  A
C576        C581   1.596       .  S
C577        H580   1.080       .  S
C581        C752   1.602       .  S
C582        C583   1.417       .  A
C582        C587   1.442       .  A
C583        C584   1.379       .  A
C583        H588   1.085       .  S
C584        C585   1.393       .  A
C584        C610   1.464       .  S
C585        C586   1.410       .  A
C585        H589   1.081       .  S
C586        C587   1.456       .  A
C586        C913   1.602       .  S
C587        H590   1.079       .  S
C591        C592   1.410       .  A
C591        C596   1.446       .  A
C591        C614   1.544       .  S
C592        C593   1.373       .  A
C592        H597   1.085       .  S
C593        C594   1.394       .  A
C593        C633   1.461       .  S
C594        C595   1.417       .  A
C594        H598   1.081       .  S
C595        C596   1.463       .  A
C595        C821   1.607       .  S
C596        H599   1.079       .  S
O600       Ni608   1.912       .  S
O600        C610   1.279       .  A
O601       Ni774   1.900       .  S
O601        C611   1.276       .  A
O602       Ni774   1.930       .  S
O602        C612   1.285       .  A
O603       Ni608   1.930       .  S
O603        C613   1.285       .  A
O604       Ni941   1.882   1_545  S
O604       C1111   1.274       .  A
O605       Ni609   1.886       .  S
O605       C1110   1.273       .  A
O606       Ni609   1.910       .  S
O606       C1109   1.283       .  A
O607       Ni941   1.913   1_545  S
O607       C1108   1.281       .  A
Ni608       O933   1.900   1_545  S
Ni608       O934   1.930   1_545  S
Ni609       O770   1.882       .  S
Ni609       O773   1.913       .  S
Ni609     Ni1272   2.394       .  S
C611        C639   1.463       .  S
C613        C648   1.467       .  S
C614        C615   1.415       .  A
C614        C619   1.444       .  A
C615        C616   1.377       .  A
C615        H620   1.084       .  S
C616        C617   1.396       .  A
C616        C635   1.463       .  S
C617        C618   1.412       .  A
C617        H621   1.083       .  S
C618        C619   1.459       .  A
C618        C655   1.597       .  S
C619        H622   1.080       .  S
O623       Ni631   1.916       .  S
O623        C633   1.281       .  A
O624       Ni963   1.907       .  S
O624        C634   1.279       .  A
O625       Ni963   1.919       .  S
O625        C635   1.283       .  A
O626       Ni631   1.926       .  S
O626        C636   1.283       .  A
O627       Ni798   1.886       .  S
O627       C1134   1.277       .  A
O628       Ni632   1.892   1_545  S
O628       C1133   1.276       .  A
O629       Ni632   1.906   1_545  S
O629       C1132   1.280       .  A
O630       Ni798   1.896       .  S
O630       C1131   1.278       .  A
Ni631       O790   1.907       .  S
Ni631       O791   1.919       .  S
Ni632       O959   1.886       .  S
Ni632       O962   1.896       .  S
Ni632     Ni1461   2.395   1_565  S
C634        C650   1.463       .  S
C636        C641   1.466       .  S
C637        C638   1.403   1_554  A
C637        C642   1.405       .  A
C637        C646   1.492       .  S
C638        C639   1.391       .  A
C638        H643   1.082       .  S
C639        C640   1.409   1_556  A
C640        C641   1.404       .  A
C640        H644   1.082       .  S
C641        C642   1.393       .  A
C642        H645   1.082       .  S
C646        C647   1.399   1_554  A
C646        C651   1.400       .  A
C647        C648   1.402       .  A
C647        H652   1.083       .  S
C648        C649   1.409   1_556  A
C649        C650   1.414       .  A
C649        H653   1.083       .  S
C650        C651   1.400       .  A
C651        H654   1.084       .  S
C655        C842   1.573       .  S
C655        C927   1.607   1_545  S
C656        C657   1.402       .  A
C656        C661   1.380       .  A
C657        C658   1.399       .  A
C657        H662   1.082       .  S
C658        C659   1.420       .  A
C659        C660   1.414       .  A
C659        H663   1.084       .  S
C660        C661   1.397       .  A
C660        C719   1.474       .  S
C661        H664   1.079       .  S
C665        C666   1.406       .  A
C665        C836   1.422       .  A
C665        C674   1.518       .  S
C666        C667   1.395       .  A
C666        H671   1.084       .  S
C667        C834   1.401       .  A
C667        C693   1.472       .  S
C668        C669   1.410       .  A
C668        H672   1.083       .  S
C669        C670   1.447       .  A
C669       C1319   1.581       .  S
C670        H673   1.079       .  S
C674        C675   1.419       .  A
C674        C679   1.408       .  A
C675        C676   1.443       .  A
C675        H680   1.080       .  S
C676        C677   1.411       .  A
C676        C987   1.573       .  S
C677        C678   1.400       .  A
C677        H681   1.084       .  S
C678        C679   1.398       .  A
C678        C861   1.474       .  S
C679        H682   1.084       .  S
O683      Ni1189   1.909       .  S
O684       Ni691   1.924       .  S
O685       Ni691   1.933       .  S
O685        C695   1.284       .  A
O686      Ni1189   1.909       .  S
O686        C696   1.284       .  A
O687      Ni1190   1.917       .  S
O687        C862   1.277       .  A
O688       Ni692   1.898       .  S
O688        C861   1.279       .  A
O689       Ni692   1.886       .  S
O689        C694   1.284       .  A
O690      Ni1190   1.918       .  S
O690        C693   1.281       .  A
Ni692      Ni857   2.391       .  S
C693        O849   1.282       .  A
C694        C824   1.476       .  S
C694        O850   1.278       .  A
C697        C698   1.412       .  A
C697        C702   1.423       .  A
C697        C720   1.499       .  S
C698        C699   1.390       .  A
C698        H703   1.084       .  S
C699        C700   1.393       .  A
C699        C718   1.475       .  S
C700        C701   1.413       .  A
C700        H704   1.083       .  S
C701        C702   1.428       .  A
C701       C1245   1.561       .  S
C702        H705   1.082       .  S
O706       Ni714   1.936       .  S
O707      Ni1212   1.904       .  S
O708      Ni1212   1.918       .  S
O709       Ni714   1.923       .  S
O709        C719   1.278       .  A
O710       Ni715   1.873       .  S
O710        C885   1.280       .  A
O711      Ni1213   1.916       .  S
O711        C718   1.281       .  A
O712      Ni1213   1.917       .  S
O712        C717   1.276       .  A
O713       Ni715   1.896       .  S
O713        C716   1.278       .  A
Ni715      Ni880   2.390       .  S
C716        C722   1.471       .  S
C716        O872   1.284       .  A
C717        C733   1.469       .  S
C717        O873   1.285       .  A
C718        O874   1.282       .  A
C720        C721   1.410       .  A
C720        C725   1.422       .  A
C721        C722   1.392       .  A
C721        H726   1.084       .  S
C722        C723   1.390       .  A
C723        C724   1.415       .  A
C723        H727   1.083       .  S
C724        C725   1.427       .  A
C724        C747   1.556       .  S
C725        H728   1.082       .  S
C729        C730   1.389       .  A
C729        C734   1.398       .  A
C729        C822   1.476       .  S
C730        C731   1.392       .  A
C730        H735   1.085       .  S
C731        C732   1.417       .  A
C731        C862   1.467       .  S
C732        C733   1.417       .  A
C732        H736   1.083       .  S
C733        C734   1.383       .  A
C734        H737   1.081       .  S
C738        C739   1.417       .  A
C738        C743   1.446       .  A
C738        C748   1.537       .  S
C739        C740   1.380       .  A
C739        H744   1.085       .  S
C740        C741   1.395       .  A
C740        C778   1.461       .  S
C741        C742   1.405       .  A
C741        H745   1.083       .  S
C742        C743   1.456       .  A
C742        C747   1.596       .  S
C743        H746   1.080       .  S
C747        C918   1.602       .  S
C748        C749   1.417       .  A
C748        C753   1.442       .  A
C749        C750   1.379       .  A
C749        H754   1.085       .  S
C750        C751   1.393       .  A
C750        C776   1.464       .  S
C751        C752   1.410       .  A
C751        H755   1.081       .  S
C752        C753   1.456       .  A
C753        H756   1.079       .  S
C757        C758   1.410       .  A
C757        C762   1.446       .  A
C757        C780   1.544       .  S
C758        C759   1.373       .  A
C758        H763   1.085       .  S
C759        C760   1.394       .  A
C759        C799   1.460       .  S
C760        C761   1.417       .  A
C760        H764   1.081       .  S
C761        C762   1.463       .  A
C761        C987   1.607       .  S
C762        H765   1.079       .  S
O766       Ni774   1.912       .  S
O766        C776   1.279       .  A
O767       Ni940   1.900       .  S
O767        C777   1.276       .  A
O768       Ni940   1.930       .  S
O768        C778   1.285       .  A
O769       Ni774   1.930       .  S
O769        C779   1.285       .  A
O770       C1277   1.274       .  A
O771       Ni775   1.886       .  S
O771       C1276   1.273       .  A
O772       Ni775   1.910       .  S
O772       C1275   1.283       .  A
O773       C1274   1.281       .  A
Ni775       O936   1.882       .  S
Ni775       O939   1.913       .  S
Ni775     Ni1438   2.394       .  S
C777        C805   1.463       .  S
C779        C814   1.467       .  S
C780        C781   1.415       .  A
C780        C785   1.444       .  A
C781        C782   1.377       .  A
C781        H786   1.084       .  S
C782        C783   1.396       .  A
C782        C801   1.463       .  S
C783        C784   1.412       .  A
C783        H787   1.083       .  S
C784        C785   1.459       .  A
C784        C821   1.597       .  S
C785        H788   1.080       .  S
O789       Ni797   1.916       .  S
O789        C799   1.281       .  A
O790        C800   1.279       .  A
O791        C801   1.283       .  A
O792       Ni797   1.926       .  S
O792        C802   1.283       .  A
O793       Ni964   1.886       .  S
O793       C1300   1.277       .  A
O794       Ni798   1.892       .  S
O794       C1299   1.276       .  A
O795       Ni798   1.906       .  S
O795       C1298   1.280       .  A
O796       Ni964   1.896       .  S
O796       C1297   1.278       .  A
Ni797       O956   1.907       .  S
Ni797       O957   1.919       .  S
Ni798     Ni1129   2.395       .  S
C800        C816   1.463       .  S
C802        C807   1.466       .  S
C803        C804   1.403   1_554  A
C803        C808   1.405       .  A
C803        C812   1.492       .  S
C804        C805   1.391       .  A
C804        H809   1.082       .  S
C805        C806   1.409   1_556  A
C806        C807   1.404       .  A
C806        H810   1.082       .  S
C807        C808   1.393       .  A
C808        H811   1.082       .  S
C812        C813   1.399   1_554  A
C812        C817   1.400       .  A
C813        C814   1.402       .  A
C813        H818   1.083       .  S
C814        C815   1.409   1_556  A
C815        C816   1.414       .  A
C815        H819   1.083       .  S
C816        C817   1.400       .  A
C817        H820   1.084       .  S
C822        C823   1.402       .  A
C822        C827   1.380       .  A
C823        C824   1.399       .  A
C823        H828   1.082       .  S
C824        C825   1.420       .  A
C825        C826   1.414       .  A
C825        H829   1.084       .  S
C826        C827   1.397       .  A
C826        C885   1.474       .  S
C827        H830   1.079       .  S
C831        C832   1.406       .  A
C831        C840   1.518   1_565  S
C832        C833   1.395       .  A
C832        H837   1.084       .  S
C833        C859   1.472       .  S
C834        C835   1.410       .  A
C834        H838   1.083       .  S
C835        C836   1.447       .  A
C835       C1485   1.581       .  S
C836        H839   1.079       .  S
C840        C841   1.419       .  A
C840        C845   1.408       .  A
C841        C842   1.443       .  A
C841        H846   1.080   1_545  S
C842        C843   1.411       .  A
C843        C844   1.400       .  A
C843        H847   1.084       .  S
C844        C845   1.398       .  A
C845        H848   1.084       .  S
O849      Ni1355   1.909       .  S
O850       Ni857   1.924       .  S
O851       Ni857   1.933       .  S
O851        C861   1.284       .  A
O852      Ni1355   1.909       .  S
O852        C862   1.284       .  A
O853      Ni1356   1.917       .  S
O854       Ni858   1.898   1_545  S
O855       Ni858   1.886       .  S
O855        C860   1.284   1_565  A
O856      Ni1356   1.918       .  S
O856        C859   1.281       .  A
C860        C990   1.475       .  S
C863        C864   1.412   1_545  A
C863        C868   1.423       .  A
C863        C886   1.499       .  S
C864        C865   1.390       .  A
C864        H869   1.084       .  S
C865        C866   1.393       .  A
C865        C884   1.474       .  S
C866        C867   1.413       .  A
C866        H870   1.083       .  S
C867        C868   1.428   1_565  A
C867       C1411   1.561   1_565  S
C868        H871   1.082       .  S
O872       Ni880   1.936       .  S
O873      Ni1378   1.904       .  S
O874      Ni1378   1.918       .  S
O875       Ni880   1.923       .  S
O875        C885   1.278       .  A
O876       Ni881   1.873       .  S
O877      Ni1379   1.916       .  S
O877        C884   1.281       .  A
O878      Ni1379   1.917       .  S
O878        C883   1.276       .  A
O879       Ni881   1.896       .  S
O879        C882   1.278   1_565  A
C882        C888   1.471       .  S
C883        C899   1.469       .  S
C886        C887   1.410       .  A
C886        C891   1.422       .  A
C887        C888   1.392       .  A
C887        H892   1.084       .  S
C888        C889   1.390       .  A
C889        C890   1.415       .  A
C889        H893   1.083       .  S
C890        C891   1.427       .  A
C890        C913   1.556       .  S
C891        H894   1.082   1_545  S
C895        C896   1.389       .  A
C895        C900   1.398       .  A
C895        C988   1.476       .  S
C896        C897   1.392       .  A
C896        H901   1.085       .  S
C897        C898   1.417       .  A
C898        C899   1.417       .  A
C898        H902   1.083       .  S
C899        C900   1.383       .  A
C900        H903   1.081       .  S
C904        C905   1.417       .  A
C904        C909   1.446       .  A
C904        C914   1.537       .  S
C905        C906   1.380       .  A
C905        H910   1.085       .  S
C906        C907   1.395       .  A
C906        C944   1.461       .  S
C907        C908   1.405       .  A
C907        H911   1.083       .  S
C908        C909   1.456       .  A
C908        C913   1.596   1_565  S
C909        H912   1.080       .  S
C914        C915   1.417       .  A
C914        C919   1.442       .  A
C915        C916   1.380       .  A
C915        H920   1.085       .  S
C916        C917   1.393       .  A
C916        C942   1.464       .  S
C917        C918   1.410       .  A
C917        H921   1.081       .  S
C918        C919   1.456       .  A
C919        H922   1.079       .  S
C923        C924   1.410       .  A
C923        C928   1.446       .  A
C923        C946   1.544       .  S
C924        C925   1.373       .  A
C924        H929   1.085       .  S
C925        C926   1.394       .  A
C925        C965   1.460       .  S
C926        C927   1.417       .  A
C926        H930   1.081   1_565  S
C927        C928   1.463       .  A
C928        H931   1.079       .  S
O932       Ni940   1.912       .  S
O932        C942   1.279       .  A
O933        C943   1.276       .  A
O934        C944   1.285       .  A
O935       Ni940   1.930       .  S
O935        C945   1.285       .  A
O936       C1443   1.274       .  A
O937       Ni941   1.886       .  S
O937       C1442   1.273       .  A
O938       Ni941   1.910       .  S
O938       C1441   1.283       .  A
O939       C1440   1.281       .  A
Ni941     Ni1106   2.394   1_565  S
C943        C971   1.463       .  S
C945        C980   1.467       .  S
C946        C947   1.415       .  A
C946        C951   1.444       .  A
C947        C948   1.377       .  A
C947        H952   1.084       .  S
C948        C949   1.396       .  A
C948        C967   1.463       .  S
C949        C950   1.412       .  A
C949        H953   1.083       .  S
C950        C951   1.459       .  A
C950        C987   1.597       .  S
C951        H954   1.080       .  S
O955       Ni963   1.916   1_565  S
O955        C965   1.281       .  A
O956        C966   1.279       .  A
O957        C967   1.283       .  A
O958       Ni963   1.926   1_565  S
O958        C968   1.283       .  A
O959       C1466   1.277       .  A
O960       Ni964   1.892       .  S
O960       C1465   1.276       .  A
O961       Ni964   1.906       .  S
O961       C1464   1.280       .  A
O962       C1463   1.278       .  A
Ni964     Ni1295   2.395       .  S
C966        C982   1.463       .  S
C968        C973   1.466       .  S
C969        C970   1.403   1_554  A
C969        C974   1.405       .  A
C969        C978   1.492       .  S
C970        C971   1.391       .  A
C970        H975   1.082       .  S
C971        C972   1.409   1_556  A
C972        C973   1.404       .  A
C972        H976   1.082       .  S
C973        C974   1.393       .  A
C974        H977   1.082       .  S
C978        C979   1.399   1_554  A
C978        C983   1.400       .  A
C979        C980   1.402       .  A
C979        H984   1.083       .  S
C980        C981   1.409   1_556  A
C981        C982   1.414       .  A
C981        H985   1.083       .  S
C982        C983   1.400       .  A
C983        H986   1.084       .  S
C988        C989   1.402   1_565  A
C988        C993   1.380       .  A
C989        C990   1.399       .  A
C989        H994   1.082       .  S
C990        C991   1.420       .  A
C991        C992   1.414       .  A
C991        H995   1.084       .  S
C992        C993   1.397   1_545  A
C993        H996   1.079       .  S
C997        C998   1.406       .  A
C997       C1168   1.421       .  A
C997       C1006   1.518       .  S
C998        C999   1.395       .  A
C998       H1003   1.084       .  S
C999       C1166   1.401       .  A
C999       C1025   1.472       .  S
C1000      C1331   1.401       .  A
C1000      C1001   1.410       .  A
C1000      H1004   1.083   1_655  S
C1001      C1002   1.447   1_565  A
C1002      C1329   1.421   1_545  A
C1002      H1005   1.079       .  S
C1006      C1007   1.419       .  A
C1006      C1011   1.408       .  A
C1007      C1008   1.443       .  A
C1007      H1012   1.080       .  S
C1008      C1009   1.411       .  A
C1008      C1319   1.574       .  S
C1009      C1010   1.400       .  A
C1009      H1013   1.084       .  S
C1010      C1011   1.398       .  A
C1010      C1193   1.474       .  S
C1011      H1014   1.084       .  S
O1015      C1357   1.282   1_545  A
O1016     Ni1023   1.925       .  S
O1016      C1358   1.278       .  A
O1017     Ni1023   1.933       .  S
O1017      C1027   1.284       .  A
O1018      C1028   1.284   1_545  A
O1019      C1194   1.277   1_455  A
O1020     Ni1024   1.898       .  S
O1020      C1193   1.279       .  A
O1021     Ni1024   1.886       .  S
O1021      C1026   1.284       .  A
O1022      C1025   1.281   1_455  A
Ni1023    Ni1356   2.391   1_545  S
Ni1024    Ni1189   2.391       .  S
C1025      O1181   1.282       .  A
C1026      C1156   1.476       .  S
C1026      O1182   1.278       .  A
C1027      C1342   1.474       .  S
C1027      O1352   1.279       .  A
C1028      C1395   1.467       .  S
C1028      O1351   1.277   1_655  A
C1029      C1030   1.412       .  A
C1029      C1034   1.423       .  A
C1029      C1052   1.499       .  S
C1030      C1031   1.390       .  A
C1030      H1035   1.084       .  S
C1031      C1032   1.393       .  A
C1031      C1050   1.475       .  S
C1032      C1033   1.413       .  A
C1032      H1036   1.083   1_655  S
C1033      C1034   1.428       .  A
C1034      H1037   1.082       .  S
O1038     Ni1046   1.936       .  S
O1038      C1380   1.284       .  A
O1039      C1381   1.285       .  A
O1040      C1382   1.282   1_545  A
O1041     Ni1046   1.923       .  S
O1041      C1051   1.278       .  A
O1042     Ni1047   1.873       .  S
O1042      C1217   1.280       .  A
O1043      C1050   1.281       .  A
O1044      C1049   1.276       .  A
O1045     Ni1047   1.895       .  S
O1045      C1048   1.278       .  A
Ni1046    Ni1379   2.390   1_545  S
Ni1047    Ni1212   2.390       .  S
C1048      C1054   1.471       .  S
C1048      O1204   1.284       .  A
C1049      C1065   1.470       .  S
C1049      O1205   1.285       .  A
C1050      O1206   1.282       .  A
C1051      C1490   1.474       .  S
C1051      O1374   1.280   1_545  A
C1052      C1053   1.410       .  A
C1052      C1057   1.422       .  A
C1053      C1054   1.392       .  A
C1053      H1058   1.084       .  S
C1054      C1055   1.390       .  A
C1055      C1056   1.416       .  A
C1055      H1059   1.083       .  S
C1056      C1057   1.427       .  A
C1056      C1079   1.556       .  S
C1057      H1060   1.082       .  S
C1061      C1062   1.389       .  A
C1061      C1066   1.398       .  A
C1061      C1154   1.476       .  S
C1062      C1063   1.392       .  A
C1062      H1067   1.085       .  S
C1063      C1064   1.418       .  A
C1063      C1194   1.467       .  S
C1064      C1065   1.417       .  A
C1064      H1068   1.083   1_655  S
C1065      C1066   1.383       .  A
C1066      H1069   1.081       .  S
C1070      C1071   1.417       .  A
C1070      C1075   1.446       .  A
C1070      C1080   1.537       .  S
C1071      C1072   1.380       .  A
C1071      H1076   1.085       .  S
C1072      C1073   1.395       .  A
C1072      C1110   1.461       .  S
C1073      C1074   1.405       .  A
C1073      H1077   1.083       .  S
C1074      C1075   1.457       .  A
C1074      C1079   1.596       .  S
C1075      H1078   1.080       .  S
C1079      C1250   1.601       .  S
C1080      C1081   1.417       .  A
C1080      C1085   1.442       .  A
C1081      C1082   1.380       .  A
C1081      H1086   1.085       .  S
C1082      C1083   1.393       .  A
C1082      C1108   1.464       .  S
C1083      C1084   1.410       .  A
C1083      H1087   1.081       .  S
C1084      C1085   1.456       .  A
C1084      C1411   1.602       .  S
C1085      H1088   1.079       .  S
C1089      C1090   1.410       .  A
C1089      C1094   1.446       .  A
C1089      C1112   1.544       .  S
C1090      C1091   1.373       .  A
C1090      H1095   1.085       .  S
C1091      C1092   1.394       .  A
C1091      C1131   1.461       .  S
C1092      C1093   1.417       .  A
C1092      H1096   1.081       .  S
C1093      C1094   1.463       .  A
C1093      C1319   1.607       .  S
C1094      H1097   1.079       .  S
O1098     Ni1106   1.912       .  S
O1098      C1108   1.279       .  A
O1099     Ni1272   1.900       .  S
O1099      C1109   1.276       .  A
O1100     Ni1272   1.930       .  S
O1100      C1110   1.285       .  A
O1101     Ni1106   1.930       .  S
O1101      C1111   1.285       .  A
O1102     Ni1439   1.881   1_545  S
O1103     Ni1107   1.886       .  S
O1104     Ni1107   1.910       .  S
O1105     Ni1439   1.913   1_545  S
Ni1106     O1431   1.900   1_545  S
Ni1106     O1432   1.930   1_545  S
Ni1107     O1268   1.881       .  S
Ni1107     O1271   1.913       .  S
C1109      C1137   1.463       .  S
C1111      C1146   1.467       .  S
C1112      C1113   1.415       .  A
C1112      C1117   1.444       .  A
C1113      C1114   1.377       .  A
C1113      H1118   1.084       .  S
C1114      C1115   1.396       .  A
C1114      C1133   1.463       .  S
C1115      C1116   1.412       .  A
C1115      H1119   1.083       .  S
C1116      C1117   1.459       .  A
C1116      C1153   1.597       .  S
C1117      H1120   1.080       .  S
O1121     Ni1129   1.916       .  S
O1121      C1131   1.281       .  A
O1122     Ni1461   1.907       .  S
O1122      C1132   1.279       .  A
O1123     Ni1461   1.919       .  S
O1123      C1133   1.283       .  A
O1124     Ni1129   1.926       .  S
O1124      C1134   1.283       .  A
O1125     Ni1296   1.886       .  S
O1126     Ni1130   1.892   1_545  S
O1127     Ni1130   1.906   1_545  S
O1128     Ni1296   1.896       .  S
Ni1129     O1288   1.907       .  S
Ni1129     O1289   1.919       .  S
Ni1130     O1457   1.886       .  S
Ni1130     O1460   1.896       .  S
C1132      C1148   1.463       .  S
C1134      C1139   1.466       .  S
C1135      C1136   1.404   1_554  A
C1135      C1140   1.405       .  A
C1135      C1144   1.492       .  S
C1136      C1137   1.391       .  A
C1136      H1141   1.082       .  S
C1137      C1138   1.409   1_556  A
C1138      C1139   1.404       .  A
C1138      H1142   1.082       .  S
C1139      C1140   1.393       .  A
C1140      H1143   1.082       .  S
C1144      C1145   1.399   1_554  A
C1144      C1149   1.400       .  A
C1145      C1146   1.402       .  A
C1145      H1150   1.083       .  S
C1146      C1147   1.409   1_556  A
C1147      C1148   1.414       .  A
C1147      H1151   1.083       .  S
C1148      C1149   1.400       .  A
C1149      H1152   1.084       .  S
C1153      C1340   1.574       .  S
C1153      C1425   1.607   1_545  S
C1154      C1155   1.402       .  A
C1154      C1159   1.380       .  A
C1155      C1156   1.399       .  A
C1155      H1160   1.082       .  S
C1156      C1157   1.420       .  A
C1157      C1158   1.415       .  A
C1157      H1161   1.084       .  S
C1158      C1159   1.397       .  A
C1158      C1217   1.474       .  S
C1159      H1162   1.079       .  S
C1163      C1164   1.406       .  A
C1163      C1334   1.421       .  A
C1163      C1172   1.518       .  S
C1164      C1165   1.395       .  A
C1164      H1169   1.084       .  S
C1165      C1332   1.401       .  A
C1165      C1191   1.472       .  S
C1166      C1167   1.410       .  A
C1166      H1170   1.083   1_655  S
C1167      C1168   1.447       .  A
C1168      H1171   1.079       .  S
C1172      C1173   1.419       .  A
C1172      C1177   1.408       .  A
C1173      C1174   1.443       .  A
C1173      H1178   1.080       .  S
C1174      C1175   1.411       .  A
C1174      C1485   1.574       .  S
C1175      C1176   1.400       .  A
C1175      H1179   1.084       .  S
C1176      C1177   1.398       .  A
C1176      C1359   1.474       .  S
C1177      H1180   1.084       .  S
O1182     Ni1189   1.925       .  S
O1183     Ni1189   1.933       .  S
O1183      C1193   1.284       .  A
O1184      C1194   1.284       .  A
O1185      C1360   1.277   1_455  A
O1186     Ni1190   1.898       .  S
O1186      C1359   1.279       .  A
O1187     Ni1190   1.886       .  S
O1187      C1192   1.284       .  A
O1188      C1191   1.281   1_455  A
Ni1190    Ni1355   2.391       .  S
C1191      O1347   1.282       .  A
C1192      C1322   1.476       .  S
C1192      O1348   1.278       .  A
C1195      C1196   1.412       .  A
C1195      C1200   1.423       .  A
C1195      C1218   1.499       .  S
C1196      C1197   1.390       .  A
C1196      H1201   1.084       .  S
C1197      C1198   1.393       .  A
C1197      C1216   1.475       .  S
C1198      C1199   1.413       .  A
C1198      H1202   1.083   1_655  S
C1199      C1200   1.428       .  A
C1200      H1203   1.082       .  S
O1204     Ni1212   1.936       .  S
O1207     Ni1212   1.923       .  S
O1207      C1217   1.278       .  A
O1208     Ni1213   1.873       .  S
O1208      C1383   1.280       .  A
O1209      C1216   1.281       .  A
O1210      C1215   1.276       .  A
O1211     Ni1213   1.896       .  S
O1211      C1214   1.278       .  A
Ni1213    Ni1378   2.390       .  S
C1214      C1220   1.471       .  S
C1214      O1370   1.284       .  A
C1215      C1231   1.470       .  S
C1215      O1371   1.285       .  A
C1216      O1372   1.282       .  A
C1218      C1219   1.410       .  A
C1218      C1223   1.422       .  A
C1219      C1220   1.392       .  A
C1219      H1224   1.084       .  S
C1220      C1221   1.390       .  A
C1221      C1222   1.415       .  A
C1221      H1225   1.083       .  S
C1222      C1223   1.427       .  A
C1222      C1245   1.556       .  S
C1223      H1226   1.082       .  S
C1227      C1228   1.389       .  A
C1227      C1232   1.398       .  A
C1227      C1320   1.476       .  S
C1228      C1229   1.392       .  A
C1228      H1233   1.085       .  S
C1229      C1230   1.417       .  A
C1229      C1360   1.467       .  S
C1230      C1231   1.417       .  A
C1230      H1234   1.083   1_655  S
C1231      C1232   1.383       .  A
C1232      H1235   1.081       .  S
C1236      C1237   1.417       .  A
C1236      C1241   1.446       .  A
C1236      C1246   1.537       .  S
C1237      C1238   1.380       .  A
C1237      H1242   1.085       .  S
C1238      C1239   1.395       .  A
C1238      C1276   1.461       .  S
C1239      C1240   1.405       .  A
C1239      H1243   1.083       .  S
C1240      C1241   1.457       .  A
C1240      C1245   1.596       .  S
C1241      H1244   1.080       .  S
C1245      C1416   1.602       .  S
C1246      C1247   1.417       .  A
C1246      C1251   1.442       .  A
C1247      C1248   1.380       .  A
C1247      H1252   1.085       .  S
C1248      C1249   1.393       .  A
C1248      C1274   1.464       .  S
C1249      C1250   1.410       .  A
C1249      H1253   1.081       .  S
C1250      C1251   1.456       .  A
C1251      H1254   1.079       .  S
C1255      C1256   1.410       .  A
C1255      C1260   1.446       .  A
C1255      C1278   1.544       .  S
C1256      C1257   1.373       .  A
C1256      H1261   1.085       .  S
C1257      C1258   1.394       .  A
C1257      C1297   1.461       .  S
C1258      C1259   1.417       .  A
C1258      H1262   1.081       .  S
C1259      C1260   1.463       .  A
C1259      C1485   1.607       .  S
C1260      H1263   1.079       .  S
O1264     Ni1272   1.912       .  S
O1264      C1274   1.279       .  A
O1265     Ni1438   1.900       .  S
O1265      C1275   1.276       .  A
O1266     Ni1438   1.930       .  S
O1266      C1276   1.285       .  A
O1267     Ni1272   1.930       .  S
O1267      C1277   1.285       .  A
O1269     Ni1273   1.886       .  S
O1270     Ni1273   1.910       .  S
Ni1273     O1434   1.881       .  S
Ni1273     O1437   1.913       .  S
C1275      C1303   1.463       .  S
C1277      C1312   1.467       .  S
C1278      C1279   1.415       .  A
C1278      C1283   1.444       .  A
C1279      C1280   1.377       .  A
C1279      H1284   1.084       .  S
C1280      C1281   1.396       .  A
C1280      C1299   1.463       .  S
C1281      C1282   1.412       .  A
C1281      H1285   1.083       .  S
C1282      C1283   1.459       .  A
C1282      C1319   1.597       .  S
C1283      H1286   1.080       .  S
O1287     Ni1295   1.916       .  S
O1287      C1297   1.281       .  A
O1288      C1298   1.279       .  A
O1289      C1299   1.283       .  A
O1290     Ni1295   1.926       .  S
O1290      C1300   1.283       .  A
O1291     Ni1462   1.886       .  S
O1292     Ni1296   1.892       .  S
O1293     Ni1296   1.906       .  S
O1294     Ni1462   1.896       .  S
Ni1295     O1454   1.907       .  S
Ni1295     O1455   1.919       .  S
C1298      C1314   1.463       .  S
C1300      C1305   1.466       .  S
C1301      C1302   1.404   1_554  A
C1301      C1306   1.405       .  A
C1301      C1310   1.492       .  S
C1302      C1303   1.391       .  A
C1302      H1307   1.082       .  S
C1303      C1304   1.409   1_556  A
C1304      C1305   1.404       .  A
C1304      H1308   1.082       .  S
C1305      C1306   1.393       .  A
C1306      H1309   1.082       .  S
C1310      C1311   1.399   1_554  A
C1310      C1315   1.400       .  A
C1311      C1312   1.402       .  A
C1311      H1316   1.083       .  S
C1312      C1313   1.409   1_556  A
C1313      C1314   1.414       .  A
C1313      H1317   1.083       .  S
C1314      C1315   1.400       .  A
C1315      H1318   1.084       .  S
C1320      C1321   1.402       .  A
C1320      C1325   1.380       .  A
C1321      C1322   1.399       .  A
C1321      H1326   1.082       .  S
C1322      C1323   1.420       .  A
C1323      C1324   1.415       .  A
C1323      H1327   1.084       .  S
C1324      C1325   1.397       .  A
C1324      C1383   1.474       .  S
C1325      H1328   1.079       .  S
C1329      C1330   1.406       .  A
C1329      C1338   1.518   1_565  S
C1330      C1331   1.395       .  A
C1330      H1335   1.084       .  S
C1331      C1357   1.472       .  S
C1332      C1333   1.410       .  A
C1332      H1336   1.083   1_655  S
C1333      C1334   1.447       .  A
C1334      H1337   1.079       .  S
C1338      C1339   1.419       .  A
C1338      C1343   1.408       .  A
C1339      C1340   1.443       .  A
C1339      H1344   1.080   1_545  S
C1340      C1341   1.411       .  A
C1341      C1342   1.400       .  A
C1341      H1345   1.084       .  S
C1342      C1343   1.398       .  A
C1343      H1346   1.084       .  S
O1348     Ni1355   1.925       .  S
O1349     Ni1355   1.933       .  S
O1349      C1359   1.284       .  A
O1350      C1360   1.284       .  A
O1352     Ni1356   1.898   1_545  S
O1353     Ni1356   1.886       .  S
O1353      C1358   1.284   1_565  A
O1354      C1357   1.281   1_455  A
C1358      C1488   1.476       .  S
C1361      C1362   1.412   1_545  A
C1361      C1366   1.423       .  A
C1361      C1384   1.499       .  S
C1362      C1363   1.390       .  A
C1362      H1367   1.084       .  S
C1363      C1364   1.393       .  A
C1363      C1382   1.475       .  S
C1364      C1365   1.413       .  A
C1364      H1368   1.083   1_655  S
C1365      C1366   1.428   1_565  A
C1366      H1369   1.082       .  S
O1370     Ni1378   1.936       .  S
O1373     Ni1378   1.923       .  S
O1373      C1383   1.278       .  A
O1374     Ni1379   1.873       .  S
O1375      C1382   1.281       .  A
O1376      C1381   1.276       .  A
O1377     Ni1379   1.895       .  S
O1377      C1380   1.278   1_565  A
C1380      C1386   1.471       .  S
C1381      C1397   1.470       .  S
C1384      C1385   1.410       .  A
C1384      C1389   1.422       .  A
C1385      C1386   1.392       .  A
C1385      H1390   1.084       .  S
C1386      C1387   1.390       .  A
C1387      C1388   1.415       .  A
C1387      H1391   1.083       .  S
C1388      C1389   1.427       .  A
C1388      C1411   1.556       .  S
C1389      H1392   1.082   1_545  S
C1393      C1394   1.389       .  A
C1393      C1398   1.398       .  A
C1393      C1486   1.476       .  S
C1394      C1395   1.392       .  A
C1394      H1399   1.085       .  S
C1395      C1396   1.417       .  A
C1396      C1397   1.417       .  A
C1396      H1400   1.083   1_655  S
C1397      C1398   1.383       .  A
C1398      H1401   1.081       .  S
C1402      C1403   1.417       .  A
C1402      C1407   1.446       .  A
C1402      C1412   1.537       .  S
C1403      C1404   1.380       .  A
C1403      H1408   1.085       .  S
C1404      C1405   1.395       .  A
C1404      C1442   1.461       .  S
C1405      C1406   1.405       .  A
C1405      H1409   1.083       .  S
C1406      C1407   1.457       .  A
C1406      C1411   1.596   1_565  S
C1407      H1410   1.080       .  S
C1412      C1413   1.417       .  A
C1412      C1417   1.442       .  A
C1413      C1414   1.380       .  A
C1413      H1418   1.085       .  S
C1414      C1415   1.393       .  A
C1414      C1440   1.464       .  S
C1415      C1416   1.410       .  A
C1415      H1419   1.081       .  S
C1416      C1417   1.456       .  A
C1417      H1420   1.079       .  S
C1421      C1422   1.410       .  A
C1421      C1426   1.446       .  A
C1421      C1444   1.544       .  S
C1422      C1423   1.373       .  A
C1422      H1427   1.085       .  S
C1423      C1424   1.394       .  A
C1423      C1463   1.461       .  S
C1424      C1425   1.417       .  A
C1424      H1428   1.081   1_565  S
C1425      C1426   1.463       .  A
C1426      H1429   1.079       .  S
O1430     Ni1438   1.912       .  S
O1430      C1440   1.279       .  A
O1431      C1441   1.276       .  A
O1432      C1442   1.285       .  A
O1433     Ni1438   1.930       .  S
O1433      C1443   1.285       .  A
O1435     Ni1439   1.886       .  S
O1436     Ni1439   1.910       .  S
C1441      C1469   1.463       .  S
C1443      C1478   1.467       .  S
C1444      C1445   1.415       .  A
C1444      C1449   1.444       .  A
C1445      C1446   1.377       .  A
C1445      H1450   1.084       .  S
C1446      C1447   1.396       .  A
C1446      C1465   1.463       .  S
C1447      C1448   1.412       .  A
C1447      H1451   1.083       .  S
C1448      C1449   1.459       .  A
C1448      C1485   1.597       .  S
C1449      H1452   1.080       .  S
O1453     Ni1461   1.916   1_565  S
O1453      C1463   1.281       .  A
O1454      C1464   1.279       .  A
O1455      C1465   1.283       .  A
O1456     Ni1461   1.926   1_565  S
O1456      C1466   1.283       .  A
O1458     Ni1462   1.892       .  S
O1459     Ni1462   1.906       .  S
C1464      C1480   1.463       .  S
C1466      C1471   1.466       .  S
C1467      C1468   1.404   1_554  A
C1467      C1472   1.405       .  A
C1467      C1476   1.492       .  S
C1468      C1469   1.391       .  A
C1468      H1473   1.082       .  S
C1469      C1470   1.409   1_556  A
C1470      C1471   1.404       .  A
C1470      H1474   1.082       .  S
C1471      C1472   1.393       .  A
C1472      H1475   1.082       .  S
C1476      C1477   1.399   1_554  A
C1476      C1481   1.400       .  A
C1477      C1478   1.402       .  A
C1477      H1482   1.083       .  S
C1478      C1479   1.409   1_556  A
C1479      C1480   1.414       .  A
C1479      H1483   1.083       .  S
C1480      C1481   1.400       .  A
C1481      H1484   1.084       .  S
C1486      C1487   1.402   1_565  A
C1486      C1491   1.380       .  A
C1487      C1488   1.399       .  A
C1487      H1492   1.082       .  S
C1488      C1489   1.420       .  A
C1489      C1490   1.415       .  A
C1489      H1493   1.084       .  S
C1490      C1491   1.397   1_545  A
C1491      H1494   1.079       .  S
