geometry optimzed in LAMMPS
_audit_creation_date              2020-11-30 
_audit_creation_method            'lammps2cif' 
_symmetry_space_group_name_H-M    'P1' 
_symmetry_Int_Tables_number       1 
_symmetry_cell_setting            triclinic 
loop_ 
_symmetry_equiv_pos_as_xyz 
  x,y,z 
_cell_length_a                    39.83528122782988 
_cell_length_b                    39.93740262501147 
_cell_length_c                    39.57037582136565 
_cell_angle_alpha                 89.94409433028441 
_cell_angle_beta                  89.99591716304654 
_cell_angle_gamma                 89.75102921862299 
loop_ 
_atom_site_label 
_atom_site_type_symbol 
_atom_site_fract_x 
_atom_site_fract_y 
_atom_site_fract_z 
_atom_site_charge 
O1          O  0.25745321  0.77821310  0.53954776    -0.81220
C2          C  0.14033102  0.77826930  0.45747948     0.98140
O3          O  0.15332425  0.75492013  0.47409656    -0.70330
O4          O  0.21521439  0.74117319  0.45890056    -0.73930
Al5        Al  0.19241213  0.74972820  0.50001768     1.48980
C6          C  0.24607055  0.74626841  0.45472478     0.93390
O7          O  0.24518286  0.82932824  0.46057876    -0.80150
O8          O  0.19408897  0.84722451  0.54202786    -0.73700
Al9        Al  0.24834943  0.80316889  0.50003313     1.90120
O10         O  0.19786141  0.85578572  0.47109225    -0.72770
O11         O  0.14386162  0.80162450  0.53342879    -0.72620
O12         O  0.14906996  0.80841871  0.46281328    -0.78280
O13         O  0.16785003  0.75242709  0.54059605    -0.76490
O14         O  0.20459691  0.79301233  0.50071051    -1.12620
O15         O  0.22900968  0.73371825  0.52589854    -0.71820
C16         C  0.25199424  0.74730494  0.54268848     0.98900
C17         C  0.22554884  0.85347238  0.45507053     0.95300
Al18       Al  0.17377437  0.82554349  0.50221559     1.55560
O19         O  0.26142783  0.76731783  0.47240769    -0.76440
C20         C  0.14512562  0.77316328  0.54797316     0.99470
C21         C  0.22482638  0.85482697  0.54634745     0.94350
O22         O  0.24625184  0.84152514  0.52747972    -0.81760
O23         O  0.74317886  0.21891859  0.54175595    -0.81220
C24         C  0.85667083  0.22455397  0.45494880     0.98140
O25         O  0.84486015  0.24724827  0.47350223    -0.70330
O26         O  0.78257543  0.26095660  0.46146209    -0.73930
Al27       Al  0.80641375  0.25100836  0.50143801     1.48980
C28         C  0.75167469  0.25612201  0.45792981     0.93390
O29         O  0.75459009  0.17396097  0.45911561    -0.80150
O30         O  0.80736332  0.15259269  0.53995414    -0.73700
Al31       Al  0.75139822  0.19695777  0.50046991     1.90120
O32         O  0.80073719  0.14589695  0.46962478    -0.72770
O33         O  0.85731719  0.19926396  0.53105738    -0.72620
O34         O  0.84860984  0.19417824  0.46023206    -0.78280
O35         O  0.83159661  0.24693928  0.54132541    -0.76490
O36         O  0.79488125  0.20772285  0.50077103    -1.12620
O37         O  0.77025591  0.26493380  0.52932281    -0.71820
C38         C  0.74836073  0.24966433  0.54632114     0.98900
C39         C  0.77314043  0.14901687  0.45345515     0.95300
Al40       Al  0.82606580  0.17565413  0.50024101     1.55560
O41         O  0.73683975  0.23449909  0.47549292    -0.76440
C42         C  0.85500785  0.22668962  0.54746022     0.99470
C43         C  0.77697204  0.14333992  0.54355885     0.94350
O44         O  0.75470757  0.15663208  0.52548310    -0.81760
O45         O  0.73711599  0.78532196  0.46460408    -0.81220
C46         C  0.85860852  0.77773652  0.54046721     0.98140
O47         O  0.84628379  0.75674234  0.52038528    -0.70330
O48         O  0.78543713  0.74206762  0.53821405    -0.73930
Al49       Al  0.80498461  0.75359887  0.49673993     1.48980
C50         C  0.75508401  0.74744690  0.54495250     0.93390
O51         O  0.75677161  0.83102357  0.54449009    -0.80150
O52         O  0.80471503  0.85098564  0.46061998    -0.73700
Al53       Al  0.75010227  0.80778302  0.50405952     1.90120
O54         O  0.80141363  0.85897933  0.53106285    -0.72770
O55         O  0.85516558  0.80361653  0.46838485    -0.72620
O56         O  0.84845872  0.80808999  0.53866718    -0.78280
O57         O  0.82542047  0.76004022  0.45453868    -0.76490
O58         O  0.79327703  0.79659430  0.50011232    -1.12620
O59         O  0.76662384  0.73970143  0.47307590    -0.71820
C60         C  0.74239838  0.75474499  0.45961901     0.98900
C61         C  0.77495525  0.85611389  0.54897251     0.95300
Al62       Al  0.82487894  0.82799999  0.49967040     1.55560
O63         O  0.73866175  0.77071357  0.53116641    -0.76440
C64         C  0.85157329  0.77705949  0.45083992     0.99470
C65         C  0.77392657  0.85937513  0.45738071     0.94350
O66         O  0.75213198  0.84726625  0.47693920    -0.81760
O67         O  0.45497926  0.25138343  0.22260977    -0.81220
C68         C  0.54607670  0.14105560  0.21981964     0.98140
O69         O  0.53120387  0.15453633  0.24403597    -0.70330
O70         O  0.54077791  0.21756963  0.25718288    -0.73930
Al71       Al  0.50222502  0.19092464  0.25002590     1.48980
C72         C  0.54039914  0.24891877  0.25366005     0.93390
O73         O  0.53441070  0.24673707  0.17108400    -0.80150
O74         O  0.45828807  0.19116417  0.15026997    -0.73700
Al75       Al  0.49498998  0.24677650  0.19684067     1.90120
O76         O  0.52845550  0.19895932  0.14409804    -0.72770
O77         O  0.46818781  0.14189235  0.19740874    -0.72620
O78         O  0.53822410  0.14869863  0.18969938    -0.78280
O79         O  0.46452489  0.16319445  0.24859775    -0.76490
O80         O  0.49843966  0.20310943  0.20645780    -1.12620
O81         O  0.47399879  0.22463221  0.26726576    -0.71820
C82         C  0.45457656  0.24569532  0.25404780     0.98900
C83         C  0.54242953  0.22755441  0.14715676     0.95300
Al84       Al  0.49828379  0.17274111  0.17326427     1.55560
O85         O  0.52088709  0.26202291  0.23272490    -0.76440
C86         C  0.45573841  0.14171883  0.22714353     0.99470
C87         C  0.45306941  0.22162500  0.14256404     0.94350
O88         O  0.46868010  0.24405741  0.15772883    -0.81760
O89         O  0.78153477  0.54163278  0.25978013    -0.81220
C90         C  0.77638998  0.46207034  0.14064775     0.98140
O91         O  0.75492130  0.48102945  0.15365716    -0.70330
O92         O  0.74390427  0.46158976  0.21540610    -0.73930
Al93       Al  0.75151190  0.50347949  0.19518805     1.48980
C94         C  0.74821254  0.45694095  0.24659240     0.93390
O95         O  0.83114783  0.46217418  0.24618606    -0.80150
O96         O  0.84900213  0.54254190  0.19379128    -0.73700
Al97       Al  0.80583159  0.50174186  0.25012264     1.90120
O98         O  0.85672633  0.47218662  0.19797830    -0.72770
O99         O  0.80107211  0.53503863  0.14507046    -0.72620
O100        O  0.80682829  0.46454100  0.15035366    -0.78280
O101        O  0.75501310  0.54536342  0.17408491    -0.76490
O102        O  0.79483906  0.50281753  0.20642054    -1.12620
O103        O  0.73610049  0.52588832  0.23394022    -0.71820
C104        C  0.75023002  0.54351185  0.25588973     0.98900
C105        C  0.85450127  0.45606473  0.22574354     0.95300
Al106      Al  0.82604528  0.50348343  0.17436003     1.55560
O107        O  0.76916634  0.47399047  0.26319324    -0.76440
C108        C  0.77397989  0.55172938  0.14944829     0.99470
C109        C  0.85708930  0.54754205  0.22451504     0.94350
O110        O  0.84473602  0.52903581  0.24703610    -0.81760
O111        O  0.53929823  0.74591432  0.21169422    -0.81220
C112        C  0.45621467  0.86041341  0.22605921     0.98140
O113        O  0.47739258  0.84942391  0.24695960    -0.70330
O114        O  0.46480916  0.78762174  0.26080716    -0.73930
Al115      Al  0.50398181  0.80979154  0.24822640     1.48980
C116        C  0.46027134  0.75695051  0.25637404     0.93390
O117        O  0.45436815  0.76066245  0.17337778    -0.80150
O118        O  0.53627921  0.81196297  0.14955654    -0.73700
Al119      Al  0.49693719  0.75577523  0.19320845     1.90120
O120        O  0.46564549  0.80592749  0.14403634    -0.72770
O121        O  0.52806013  0.86210374  0.19713069    -0.72620
O122        O  0.45827019  0.85181165  0.19508881    -0.78280
O123        O  0.54399912  0.83302413  0.24104654    -0.76490
O124        O  0.49930437  0.79885012  0.20496724    -1.12620
O125        O  0.53118563  0.77285229  0.25945180    -0.71820
C126        C  0.54644509  0.75125234  0.24213365     0.98900
C127        C  0.44876788  0.77908801  0.14819604     0.95300
Al128      Al  0.49725445  0.83056187  0.17371530     1.55560
O129        O  0.47468564  0.74120219  0.23297248    -0.76440
C130        C  0.54642712  0.85897776  0.22341192     0.99470
C131        C  0.53847723  0.78175559  0.13929484     0.94350
O132        O  0.51880504  0.75997474  0.15075858    -0.81760
O133        O  0.25651853  0.54116523  0.21854621    -0.81220
C134        C  0.14123902  0.45799191  0.22387515     0.98140
O135        O  0.15217151  0.47766700  0.24600927    -0.70330
O136        O  0.21407507  0.46329079  0.26063757    -0.73930
Al137      Al  0.19195515  0.50335235  0.24983412     1.48980
C138        C  0.24501098  0.45900645  0.25639683     0.93390
O139        O  0.24454405  0.45911384  0.17420361    -0.80150
O140        O  0.19354970  0.53969762  0.15047931    -0.73700
Al141      Al  0.24807334  0.50012688  0.19664806     1.90120
O142        O  0.19941049  0.46985920  0.14472022    -0.72770
O143        O  0.14282600  0.53219317  0.19645714    -0.72620
O144        O  0.15058711  0.46164531  0.19324422    -0.78280
O145        O  0.16892322  0.54373911  0.24385077    -0.76490
O146        O  0.20445312  0.50144790  0.20659305    -1.12620
O147        O  0.22887502  0.52890064  0.26470971    -0.71820
C148        C  0.25126885  0.54522660  0.24966550     0.98900
C149        C  0.22670055  0.45349084  0.14870297     0.95300
Al150      Al  0.17390816  0.50084081  0.17384454     1.55560
O151        O  0.26123837  0.47542850  0.23489542    -0.76440
C152        C  0.14558741  0.54963856  0.22327121     0.99470
C153        C  0.22428495  0.54268541  0.14206604     0.94350
O154        O  0.24599137  0.52435724  0.15579044    -0.81760
O155        O  0.21648123  0.54469129  0.74879196    -0.81220
C156        C  0.21890788  0.45088563  0.85811615     0.98140
O157        O  0.24261181  0.46420113  0.84246329    -0.70330
O158        O  0.25383526  0.45891172  0.77865935    -0.73930
Al159      Al  0.24719359  0.49589512  0.80791077     1.48980
C160        C  0.24947733  0.46019142  0.74725613     0.93390
O161        O  0.16811261  0.46383007  0.75382189    -0.80150
O162        O  0.14792282  0.54002398  0.81059459    -0.73700
Al163      Al  0.19268370  0.50394206  0.75319675     1.90120
O164        O  0.14317810  0.46928101  0.80313060    -0.72770
O165        O  0.19605513  0.53171727  0.85901317    -0.72620
O166        O  0.18913563  0.46138487  0.85350082    -0.78280
O167        O  0.24731987  0.53191374  0.83848069    -0.76490
O168        O  0.20374648  0.50012850  0.79717737    -1.12620
O169        O  0.26126848  0.52714048  0.77573468    -0.71820
C170        C  0.24734239  0.54738578  0.75574257     0.98900
C171        C  0.14528440  0.45509801  0.77413144     0.95300
Al172      Al  0.17182729  0.50053298  0.82887492     1.55560
O173        O  0.22895896  0.48027561  0.73463427    -0.76440
C174        C  0.22600107  0.54301216  0.85901780     0.99470
C175        C  0.13905107  0.54459997  0.78013499     0.94350
O176        O  0.15325807  0.52847921  0.75735086    -0.81760
O177        O  0.46207851  0.74443878  0.78786193    -0.81220
C178        C  0.54288104  0.86237891  0.77884037     0.98140
O179        O  0.52472686  0.84892912  0.75680858    -0.70330
O180        O  0.53943480  0.78641419  0.74402246    -0.73930
Al181      Al  0.49906421  0.80927198  0.75447286     1.48980
C182        C  0.54356585  0.75557557  0.74935695     0.93390
O183        O  0.54426358  0.76062659  0.83302869    -0.80150
O184        O  0.46182686  0.81044934  0.85400580    -0.73700
Al185      Al  0.50307480  0.75522507  0.81000284     1.90120
O186        O  0.53214671  0.80733837  0.85974965    -0.72770
O187        O  0.46934335  0.86015230  0.80559361    -0.72620
O188        O  0.53913965  0.85399767  0.80973570    -0.78280
O189        O  0.45838009  0.83302454  0.75907611    -0.76490
O190        O  0.50092630  0.79846285  0.79818133    -1.12620
O191        O  0.47346479  0.77218154  0.74159270    -0.71820
C192        C  0.45779620  0.74936072  0.75666638     0.98900
C193        C  0.54967437  0.78079091  0.85683858     0.95300
Al194      Al  0.50056615  0.83033864  0.82971891     1.55560
O195        O  0.52808053  0.74076540  0.77250899    -0.76440
C196        C  0.45322380  0.85786618  0.77792174     0.99470
C197        C  0.45913966  0.77993346  0.86340702     0.94350
O198        O  0.47825148  0.75866848  0.85021877    -0.81760
O199        O  0.78341228  0.46694596  0.74188070    -0.81220
C200        C  0.77457542  0.54633316  0.86023978     0.98140
O201        O  0.75203971  0.52813493  0.84767873    -0.70330
O202        O  0.73912784  0.54248917  0.78532683    -0.73930
Al203      Al  0.74897295  0.50232994  0.80738657     1.48980
C204        C  0.74444702  0.54739097  0.75454391     0.93390
O205        O  0.82757707  0.54699491  0.75984942    -0.80150
O206        O  0.84422266  0.46161957  0.80817858    -0.73700
Al207      Al  0.80480817  0.50678409  0.75337282     1.90120
O208        O  0.85563760  0.53168183  0.80512394    -0.72770
O209        O  0.79825154  0.47119760  0.85877670    -0.72620
O210        O  0.80526770  0.54122881  0.85225519    -0.78280
O211        O  0.75260746  0.46162059  0.83052873    -0.76490
O212        O  0.79242185  0.50378379  0.79667232    -1.12620
O213        O  0.73636650  0.47687872  0.76930491    -0.71820
C214        C  0.75272306  0.46198042  0.74661675     0.98900
C215        C  0.85281619  0.54971646  0.77859488     0.95300
Al216      Al  0.82349644  0.50165120  0.82867093     1.55560
O217        O  0.76763546  0.53251748  0.73909954    -0.76440
C218        C  0.77098624  0.45495122  0.85533584     0.99470
C219        C  0.85406871  0.45912628  0.77758954     0.94350
O220        O  0.84494314  0.48122246  0.75688402    -0.81760
O221        O  0.54004684  0.25582511  0.79065458    -0.81220
C222        C  0.45796337  0.14025709  0.77761154     0.98140
O223        O  0.47596724  0.15450399  0.75609801    -0.70330
O224        O  0.46321441  0.21701762  0.74320127    -0.73930
Al225      Al  0.50288341  0.19258845  0.75471845     1.48980
C226        C  0.45964192  0.24784786  0.74900488     0.93390
O227        O  0.45533788  0.24041908  0.83122979    -0.80150
O228        O  0.53801869  0.19143033  0.85488666    -0.73700
Al229      Al  0.49774339  0.24585111  0.81061257     1.90120
O230        O  0.46689182  0.19417386  0.85905903    -0.72770
O231        O  0.53193319  0.14162341  0.80756447    -0.72620
O232        O  0.46196819  0.14710960  0.80888836    -0.78280
O233        O  0.54262305  0.16715354  0.75966350    -0.76490
O234        O  0.50005292  0.20281549  0.79849746    -1.12620
O235        O  0.53022943  0.22868440  0.74385572    -0.71820
C236        C  0.54562679  0.25119327  0.75952179     0.98900
C237        C  0.44937649  0.22072944  0.85546190     0.95300
Al238      Al  0.49971472  0.17108729  0.83009403     1.55560
O239        O  0.47572862  0.26157711  0.77222299    -0.76440
C240        C  0.54855493  0.14391754  0.78030325     0.99470
C241        C  0.53964836  0.22186941  0.86466194     0.94350
O242        O  0.51912618  0.24223770  0.85252147    -0.81760
O243        O  0.25764754  0.21299534  0.46320449    -0.81220
C244        C  0.13931539  0.22648735  0.54255410     0.98140
O245        O  0.15265897  0.24721667  0.52289054    -0.70330
O246        O  0.21432079  0.25847015  0.53974362    -0.73930
Al247      Al  0.19340765  0.24859147  0.49856403     1.48980
C248        C  0.24486864  0.25257449  0.54489559     0.93390
O249        O  0.23938643  0.17103814  0.54601221    -0.80150
O250        O  0.19023075  0.15163556  0.46187805    -0.73700
Al251      Al  0.24609236  0.19254735  0.50450042     1.90120
O252        O  0.19397780  0.14359453  0.53240380    -0.72770
O253        O  0.14152215  0.20011925  0.46959544    -0.72620
O254        O  0.14778192  0.19563315  0.54024588    -0.78280
O255        O  0.17196493  0.24372968  0.45701009    -0.76490
O256        O  0.20329276  0.20524431  0.50144322    -1.12620
O257        O  0.23156613  0.26043240  0.47366862    -0.71820
C258        C  0.25310245  0.24370224  0.45776908     0.98900
C259        C  0.22096212  0.14584833  0.54970978     0.95300
Al260      Al  0.17081400  0.17501492  0.50111993     1.55560
O261        O  0.26043869  0.22991246  0.52940354    -0.76440
C262        C  0.14622032  0.22652582  0.45205812     0.99470
C263        C  0.22047030  0.14119981  0.46008732     0.94350
O264        O  0.24216845  0.15203899  0.48023701    -0.81760
C265        C  0.37688462  0.33482590  0.66739521     0.03710
C266        C  0.36014811  0.31770752  0.64155178    -0.12440
C267        C  0.33081950  0.33077084  0.62760135     0.01210
C268        C  0.31803451  0.36110158  0.63907182    -0.10970
C269        C  0.33409774  0.37793205  0.66509014     0.03700
C270        C  0.36509771  0.36661300  0.67707338    -0.10390
H271        H  0.36773176  0.29257877  0.63455134     0.09300
H272        H  0.29335505  0.36937187  0.63086575     0.06830
H273        H  0.37729738  0.38025116  0.69723232     0.06670
C274        C  0.33090606  0.33181501  0.37653672     0.03710
C275        C  0.36015963  0.31834259  0.36300043    -0.12440
C276        C  0.37508066  0.33324618  0.33514944     0.01210
C277        C  0.36285569  0.36345025  0.32240938    -0.10970
C278        C  0.33261056  0.37640348  0.33491991     0.03700
C279        C  0.31779990  0.36157234  0.36334614    -0.10390
H280        H  0.36860862  0.29367795  0.37093922     0.09300
H281        H  0.37408297  0.37401332  0.29987169     0.06830
H282        H  0.29371476  0.37053722  0.37241293     0.06670
C283        C  0.66771645  0.32802458  0.63736663     0.03710
C284        C  0.68245807  0.35838318  0.64567396    -0.12440
C285        C  0.66735934  0.37925426  0.66922483     0.01210
C286        C  0.63602729  0.37143718  0.68275526    -0.10970
C287        C  0.62261079  0.33964281  0.67707969     0.03700
C288        C  0.63833585  0.31834130  0.65348328    -0.10390
H289        H  0.70726063  0.36435410  0.63610569     0.09300
H290        H  0.62469482  0.38820391  0.70098330     0.06830
H291        H  0.62892137  0.29335784  0.64889246     0.06670
C292        C  0.66251825  0.62399797  0.66411396     0.03710
C293        C  0.67687423  0.63711353  0.63484487    -0.12440
C294        C  0.66512177  0.66746473  0.62184262     0.01210
C295        C  0.63623834  0.68223893  0.63521256    -0.10970
C296        C  0.62110633  0.66850077  0.66382814     0.03700
C297        C  0.63269379  0.63782587  0.67649859    -0.10390
H298        H  0.70064592  0.62706111  0.62602172     0.09300
H299        H  0.62888291  0.70698881  0.62659829     0.06830
H300        H  0.62205055  0.62817955  0.69974494     0.06670
C301        C  0.38235161  0.66610038  0.66833359     0.03710
C302        C  0.37230628  0.67235407  0.63474904    -0.12440
C303        C  0.33933336  0.66558682  0.62481557     0.01210
C304        C  0.31938638  0.64476986  0.64447822    -0.10970
C305        C  0.32982345  0.63590756  0.67669592     0.03700
C306        C  0.36018442  0.64808749  0.68916611    -0.10390
H307        H  0.38818272  0.68535328  0.61714776     0.09300
H308        H  0.29449715  0.63793836  0.63588641     0.06830
H309        H  0.36554462  0.64436727  0.71571910     0.06670
C310        C  0.33592323  0.62902509  0.33211612     0.03710
C311        C  0.32606951  0.63718226  0.36504977    -0.12440
C312        C  0.34074528  0.66427103  0.38211730     0.01210
C313        C  0.37161878  0.67594959  0.37017357    -0.10970
C314        C  0.38050943  0.66966608  0.33659861     0.03700
C315        C  0.36312288  0.64577444  0.31793409    -0.10390
H316        H  0.30386166  0.62540031  0.37488953     0.09300
H317        H  0.38497718  0.69499069  0.38416422     0.06830
H318        H  0.36881307  0.64282013  0.29131784     0.06670
C319        C  0.65761664  0.66839220  0.38340463     0.03710
C320        C  0.66926273  0.63693700  0.37279420    -0.12440
C321        C  0.66622110  0.62796810  0.33857403     0.01210
C322        C  0.64667316  0.64865129  0.31761963    -0.10970
C323        C  0.62912312  0.67577413  0.33063048     0.03700
C324        C  0.63456905  0.68597058  0.36366950    -0.10390
H325        H  0.68424622  0.62231496  0.39010934     0.09300
H326        H  0.64574061  0.64473472  0.29056777     0.06830
H327        H  0.62477255  0.70991542  0.37214561     0.06670
C328        C  0.61999362  0.33654976  0.33580123     0.03710
C329        C  0.63013820  0.33044449  0.36910778    -0.12440
C330        C  0.66372873  0.33616126  0.37829580     0.01210
C331        C  0.68422310  0.35360892  0.35537711    -0.10970
C332        C  0.67146171  0.36479834  0.32471099     0.03700
C333        C  0.63953765  0.35608038  0.31462902    -0.10390
H334        H  0.61306691  0.31760586  0.38577112     0.09300
H335        H  0.71057007  0.35783335  0.36043368     0.06830
H336        H  0.63112789  0.36203990  0.28923839     0.06670
O337        O  0.75906057  0.04329924  0.72367311    -0.81220
C338        C  0.64577745  0.95575737  0.72599865     0.98140
O339        O  0.65946561  0.97229502  0.74885530    -0.70330
O340        O  0.72285682  0.96100012  0.76037796    -0.73930
Al341      Al  0.69664674  0.00013911  0.75281565     1.48980
C342        C  0.75396023  0.95935346  0.75466261     0.93390
O343        O  0.74997376  0.96512080  0.67086758    -0.80150
O344        O  0.69486968  0.04222177  0.65326910    -0.73700
Al345      Al  0.75164260  0.00397461  0.69773578     1.90120
O346        O  0.70067514  0.97190350  0.64674825    -0.72770
O347        O  0.64592023  0.03308682  0.70141968    -0.72620
O348        O  0.65259161  0.96264139  0.69527387    -0.78280
O349        O  0.66961610  0.03894189  0.75121957    -0.76490
O350        O  0.70789620  0.00218712  0.70891921    -1.12620
O351        O  0.73087381  0.02741000  0.76819308    -0.71820
C352        C  0.75298283  0.04517760  0.75490817     0.98900
C353        C  0.72937764  0.95770363  0.64794456     0.95300
Al354      Al  0.67619346  0.00244554  0.67690642     1.55560
O355        O  0.76728426  0.97718644  0.73256765    -0.76440
C356        C  0.64727732  0.04715103  0.73029129     0.99470
C357        C  0.72553351  0.04811529  0.64610501     0.94350
O358        O  0.74788953  0.03112214  0.65996438    -0.81760
C359        C  0.83607344  0.12451998  0.84114984     0.03710
C360        C  0.86793806  0.13487857  0.83111974    -0.12440
C361        C  0.87799554  0.16782414  0.83780062     0.01210
C362        C  0.85876947  0.18715049  0.86045643    -0.10970
C363        C  0.82947024  0.17415975  0.87456950     0.03700
C364        C  0.81798205  0.14297750  0.86455694    -0.10390
H365        H  0.88226484  0.11904643  0.81426081     0.09300
H366        H  0.86516031  0.21299728  0.86551975     0.06830
H367        H  0.79306728  0.13487328  0.87198040     0.06670
O368        O  0.03930394  0.24720001  0.71495213    -0.81220
C369        C  0.95296274  0.35967931  0.72513003     0.98140
O370        O  0.97253187  0.34761182  0.74675855    -0.70330
O371        O  0.96025509  0.28478263  0.75979820    -0.73930
Al372      Al  0.99972663  0.30924757  0.74962244     1.48980
C373        C  0.95793093  0.25383261  0.75432544     0.93390
O374        O  0.95616050  0.25945775  0.67138296    -0.80150
O375        O  0.03785287  0.31141009  0.65127508    -0.73700
Al376      Al  0.99791785  0.25553741  0.69366384     1.90120
O377        O  0.96710233  0.30583041  0.64367477    -0.72770
O378        O  0.02825678  0.36072326  0.69816052    -0.72620
O379        O  0.95768290  0.35220412  0.69408140    -0.78280
O380        O  0.03899934  0.33468038  0.74582022    -0.76490
O381        O  0.99844854  0.29856796  0.70574510    -1.12620
O382        O  0.02748047  0.27330979  0.76240519    -0.71820
C383        C  0.04436366  0.25234923  0.74588184     0.98900
C384        C  0.95025439  0.27892286  0.64701681     0.95300
Al385      Al  0.99776111  0.33014512  0.67421336     1.55560
O386        O  0.97467833  0.24011198  0.73140300    -0.76440
C387        C  0.04451815  0.35840472  0.72577096     0.99470
C388        C  0.04187985  0.28099102  0.64217255     0.94350
O389        O  0.02174601  0.25935914  0.65269228    -0.81760
O390        O  0.24293661  0.96016458  0.72324462    -0.81220
C391        C  0.35485814  0.04803929  0.72422568     0.98140
O392        O  0.34194056  0.03116079  0.74728625    -0.70330
O393        O  0.27856279  0.04406611  0.75879246    -0.73930
Al394      Al  0.30433551  0.00433228  0.75202582     1.48980
C395        C  0.24729688  0.04510614  0.75366351     0.93390
O396        O  0.25115564  0.03933774  0.67210642    -0.80150
O397        O  0.30575382  0.96042009  0.65391150    -0.73700
Al398      Al  0.24950452  0.99990391  0.69769131     1.90120
O399        O  0.29849528  0.03049422  0.64526738    -0.72770
O400        O  0.35513899  0.97196455  0.70141005    -0.72620
O401        O  0.34710314  0.04175491  0.69357213    -0.78280
O402        O  0.33066688  0.96517228  0.75056080    -0.76490
O403        O  0.29296917  0.00178297  0.70843347    -1.12620
O404        O  0.26983682  0.97788809  0.76803266    -0.71820
C405        C  0.24853155  0.95924414  0.75469021     0.98900
C406        C  0.27019553  0.04549033  0.64755856     0.95300
Al407      Al  0.32413980  0.00121457  0.67616545     1.55560
O408        O  0.23380241  0.02598527  0.73286329    -0.76440
C409        C  0.35406121  0.95799860  0.73040911     0.99470
C410        C  0.27512684  0.95554105  0.64578583     0.94350
O411        O  0.25331671  0.97366964  0.65907904    -0.81760
C412        C  0.16603544  0.16877269  0.88085906     0.03710
C413        C  0.17511620  0.13711772  0.86873620    -0.12440
C414        C  0.16416155  0.12727128  0.83687240     0.01210
C415        C  0.13950582  0.14525007  0.82008007    -0.10970
C416        C  0.12730264  0.17491612  0.83369933     0.03700
C417        C  0.14050759  0.18674311  0.86413972    -0.10390
H418        H  0.19434465  0.12251023  0.88134059     0.09300
H419        H  0.13250688  0.13802533  0.79460588     0.06830
H420        H  0.13323585  0.21143923  0.87281116     0.06670
O421        O  0.03771890  0.71416243  0.76016404    -0.81220
C422        C  0.95565333  0.72483027  0.64239816     0.98140
O423        O  0.97442285  0.74575863  0.65611848    -0.70330
O424        O  0.95636939  0.75325953  0.71925404    -0.73930
Al425      Al  0.99820665  0.74707984  0.69705987     1.48980
C426        C  0.95136969  0.74559971  0.74978264     0.93390
O427        O  0.95934272  0.66576756  0.74611811    -0.80150
O428        O  0.03710008  0.64837511  0.69172209    -0.73700
Al429      Al  0.99840349  0.69063493  0.75005957     1.90120
O430        O  0.96563661  0.64320593  0.69614828    -0.72770
O431        O  0.02969529  0.69896738  0.64491966    -0.72620
O432        O  0.95897082  0.69409027  0.65046273    -0.78280
O433        O  0.03934316  0.74478106  0.67361861    -0.76490
O434        O  0.99841676  0.70334036  0.70664527    -1.12620
O435        O  0.02255226  0.76086163  0.73549212    -0.71820
C436        C  0.04058617  0.74510940  0.75614978     0.98900
C437        C  0.95031855  0.64478616  0.72447485     0.95300
Al438      Al  0.99799585  0.67340824  0.67350373     1.55560
O439        O  0.97073369  0.72557273  0.76471923    -0.76440
C440        C  0.04551350  0.72661525  0.64826653     0.99470
C441        C  0.04324375  0.64054787  0.72236488     0.94350
O442        O  0.02590537  0.65288065  0.74559558    -0.81760
C443        C  0.12520496  0.83392863  0.82757536     0.03710
C444        C  0.13457729  0.86642845  0.81945385    -0.12440
C445        C  0.16144554  0.88091083  0.83670519     0.01210
C446        C  0.17436252  0.86596401  0.86583742    -0.10970
C447        C  0.16687002  0.83253680  0.87243792     0.03700
C448        C  0.14228874  0.81667513  0.85303344    -0.10390
H449        H  0.12444937  0.87839125  0.79704751     0.09300
H450        H  0.19461462  0.87804791  0.87936309     0.06830
H451        H  0.13752934  0.79016257  0.85641062     0.06670
O452        O  0.27859231  0.75367346  0.95975082    -0.81220
C453        C  0.27897853  0.64138126  0.04705943     0.98140
O454        O  0.25569570  0.65164675  0.02829118    -0.70330
O455        O  0.23815947  0.71262266  0.03999525    -0.73930
Al456      Al  0.24984307  0.68958766  0.00039898     1.48980
C457        C  0.24157161  0.74355846  0.04380157     0.93390
O458        O  0.32363491  0.74581598  0.04333731    -0.80150
O459        O  0.34876336  0.69513544  0.96215008    -0.73700
Al460      Al  0.30060733  0.74753965  0.00168976     1.90120
O461        O  0.35427350  0.70155338  0.03284331    -0.72770
O462        O  0.30473664  0.64233150  0.97068788    -0.72620
O463        O  0.30900737  0.65084985  0.04171327    -0.78280
O464        O  0.25545828  0.66502861  0.96054920    -0.76490
O465        O  0.29246815  0.70365813  0.00140189    -1.12620
O466        O  0.23421523  0.72440274  0.97261107    -0.71820
C467        C  0.24847065  0.74571718  0.95422603     0.98900
C468        C  0.34969547  0.72876838  0.04921161     0.95300
Al469      Al  0.32641519  0.67465789  0.00181318     1.55560
O470        O  0.26189930  0.76003224  0.02620737    -0.76440
C471        C  0.27707394  0.64300363  0.95437741     0.99470
C472        C  0.35634756  0.72604340  0.95921972     0.94350
O473        O  0.34151061  0.74676627  0.97771767    -0.81760
O474        O  0.04102686  0.75852468  0.28845074    -0.81220
C475        C  0.95927459  0.64295512  0.27706038     0.98140
O476        O  0.98175455  0.65283137  0.25721815    -0.70330
O477        O  0.96814052  0.71506589  0.24218622    -0.73930
Al478      Al  0.00767892  0.69243001  0.25534550     1.48980
C479        C  0.96187937  0.74548077  0.24804464     0.93390
O480        O  0.95975652  0.74252212  0.33287810    -0.80150
O481        O  0.04004677  0.68992234  0.35441084    -0.73700
Al482      Al  0.00066797  0.74708209  0.31017066     1.90120
O483        O  0.97051060  0.69672556  0.36082850    -0.72770
O484        O  0.03088361  0.64005232  0.30687718    -0.72620
O485        O  0.96103842  0.65185132  0.30810656    -0.78280
O486        O  0.04801109  0.66894258  0.26309088    -0.76490
O487        O  0.00314140  0.70392514  0.29865920    -1.12620
O488        O  0.03373096  0.72914197  0.24278303    -0.71820
C489        C  0.04649600  0.75371115  0.25756142     0.98900
C490        C  0.95470907  0.72433961  0.35816938     0.95300
Al491      Al  0.00076559  0.67210621  0.33007149     1.55560
O492        O  0.97521713  0.76026436  0.27257789    -0.76440
C493        C  0.05015171  0.64333325  0.28145610     0.99470
C494        C  0.04393054  0.72046277  0.36319472     0.94350
O495        O  0.02592960  0.74314097  0.35047204    -0.81760
C496        C  0.17145791  0.83356124  0.13066632     0.03710
C497        C  0.14467187  0.81957839  0.14869887    -0.12440
C498        C  0.12813897  0.83800976  0.17375986     0.01210
C499        C  0.13816405  0.87057768  0.18053634    -0.10970
C500        C  0.16754704  0.88258392  0.16599934     0.03700
C501        C  0.18255235  0.86563544  0.13903056    -0.10390
H502        H  0.13787835  0.79364114  0.14449202     0.09300
H503        H  0.12664690  0.88419530  0.20123984     0.06830
H504        H  0.20507410  0.87565740  0.12758804     0.06670
O505        O  0.71546330  0.75911210  0.04569640    -0.81220
C506        C  0.72190248  0.64255318  0.96207527     0.98140
O507        O  0.74215368  0.65366659  0.98343450    -0.70330
O508        O  0.75412578  0.71579492  0.96599873    -0.73930
Al509      Al  0.74479893  0.69434867  0.00756752     1.48980
C510        C  0.74820139  0.74647108  0.96079044     0.93390
O511        O  0.66500721  0.74861689  0.96684637    -0.80150
O512        O  0.64432409  0.69239901  0.04121145    -0.73700
Al513      Al  0.69094577  0.74995809  0.00613007     1.90120
O514        O  0.64133103  0.69936494  0.97060993    -0.72770
O515        O  0.69282938  0.64432725  0.03445394    -0.72620
O516        O  0.69157735  0.65282531  0.96337870    -0.78280
O517        O  0.73864287  0.67171064  0.04919891    -0.76490
O518        O  0.70150877  0.70638009  0.00557320    -1.12620
O519        O  0.76094089  0.73210479  0.03161474    -0.71820
C520        C  0.74662408  0.75526834  0.04742038     0.98900
C521        C  0.64319524  0.72828224  0.95730199     0.95300
Al522      Al  0.67005339  0.67483682  0.00266104     1.55560
O523        O  0.72674248  0.76231095  0.97795708    -0.76440
C524        C  0.71873500  0.64740346  0.05315488     0.99470
C525        C  0.63836384  0.72274501  0.04913691     0.94350
O526        O  0.65333170  0.74611593  0.03433953    -0.81760
C527        C  0.87488210  0.82566996  0.16501134     0.03710
C528        C  0.86513642  0.82116418  0.13150948    -0.12440
C529        C  0.83800908  0.83960227  0.11884610     0.01210
C530        C  0.82676142  0.86786302  0.13622450    -0.10970
C531        C  0.83413983  0.87106334  0.17071200     0.03700
C532        C  0.85829159  0.84958921  0.18493741    -0.10390
H533        H  0.87477868  0.80000891  0.11731853     0.09300
H534        H  0.80738743  0.88327451  0.12485235     0.06830
H535        H  0.86323451  0.85025176  0.21184522     0.06670
O536        O  0.24285473  0.28659929  0.96356814    -0.81220
C537        C  0.35975377  0.28126942  0.04559380     0.98140
O538        O  0.34649743  0.25799786  0.02909325    -0.70330
O539        O  0.28468834  0.24450509  0.04274155    -0.73930
Al540      Al  0.30781553  0.25369538  0.00221746     1.48980
C541        C  0.25375445  0.24928439  0.04631813     0.93390
O542        O  0.25826758  0.32952908  0.04603856    -0.80150
O543        O  0.30520704  0.34997003  0.96053293    -0.73700
Al544      Al  0.25262683  0.30791425  0.00471171     1.90120
O545        O  0.30245934  0.35910702  0.03170294    -0.72770
O546        O  0.35711050  0.30495700  0.96877057    -0.72620
O547        O  0.35200575  0.31165919  0.03942713    -0.78280
O548        O  0.33266010  0.25631468  0.96200228    -0.76490
O549        O  0.29617526  0.29684806  0.00232334    -1.12620
O550        O  0.27113739  0.24044636  0.97542411    -0.71820
C551        C  0.24854166  0.25582948  0.95926064     0.98900
C552        C  0.27618446  0.35506540  0.04983754     0.95300
Al553      Al  0.32684307  0.32894829  0.00023889     1.55560
O554        O  0.23828855  0.27055588  0.02911694    -0.76440
C555        C  0.35550465  0.27649274  0.95436333     0.99470
C556        C  0.27469176  0.35972860  0.95961706     0.94350
O557        O  0.25436616  0.34885890  0.98101662    -0.81760
O558        O  0.24275024  0.04507721  0.28541522    -0.81220
C559        C  0.35771794  0.95707693  0.28029267     0.98140
O560        O  0.34055125  0.97134650  0.25834487    -0.70330
O561        O  0.27746435  0.96191868  0.24953091    -0.73930
Al562      Al  0.30415718  0.99999156  0.25599867     1.48980
C563        C  0.24658343  0.96070012  0.25595571     0.93390
O564        O  0.25179989  0.96848342  0.34028106    -0.80150
O565        O  0.30966709  0.03805501  0.35871414    -0.73700
Al566      Al  0.25050652  0.00643911  0.31224687     1.90120
O567        O  0.30364694  0.96730464  0.35886787    -0.72770
O568        O  0.35497682  0.03393774  0.30737023    -0.72620
O569        O  0.35214005  0.96359840  0.31109254    -0.78280
O570        O  0.33218889  0.03732889  0.25708718    -0.76490
O571        O  0.29414449  0.00255599  0.30014298    -1.12620
O572        O  0.27006579  0.02815745  0.24100806    -0.71820
C573        C  0.24785387  0.04613705  0.25402590     0.98900
C574        C  0.27384362  0.95561563  0.35907820     0.95300
Al575      Al  0.32698830  0.00093545  0.33127933     1.55560
O576        O  0.23357714  0.97875763  0.27827201    -0.76440
C577        C  0.35406172  0.04691709  0.27782046     0.99470
C578        C  0.27987388  0.04741429  0.36479908     0.94350
O579        O  0.25606210  0.03509828  0.34874556    -0.81760
O580        O  0.03709649  0.28715789  0.24201024    -0.81220
C581        C  0.95735174  0.27960590  0.36144762     0.98140
O582        O  0.97607160  0.25797704  0.34828206    -0.70330
O583        O  0.95771194  0.24726134  0.28603761    -0.73930
Al584      Al  0.99948892  0.25532097  0.30698481     1.48980
C585        C  0.95285199  0.25201453  0.25496480     0.93390
O586        O  0.95662763  0.33411336  0.25764054    -0.80150
O587        O  0.03775866  0.35350072  0.30854233    -0.73700
Al588      Al  0.99674263  0.31007491  0.25267015     1.90120
O589        O  0.96736354  0.36007347  0.30528637    -0.72770
O590        O  0.03061488  0.30453936  0.35771952    -0.72620
O591        O  0.96018283  0.31009762  0.35233801    -0.78280
O592        O  0.04094259  0.25894385  0.32873409    -0.76490
O593        O  0.99850774  0.29866854  0.29621376    -1.12620
O594        O  0.02342032  0.24104565  0.26852894    -0.71820
C595        C  0.04051209  0.25618092  0.24667896     0.98900
C596        C  0.95061438  0.35758363  0.27793707     0.95300
Al597      Al  0.99901457  0.32964089  0.32843598     1.55560
O598        O  0.97022221  0.27331750  0.23940847    -0.76440
C599        C  0.04675013  0.27704325  0.35400606     0.99470
C600        C  0.04093952  0.36247398  0.27771521     0.94350
O601        O  0.02264048  0.34920225  0.25574417    -0.81760
C602        C  0.16329718  0.12406658  0.16585495     0.03710
C603        C  0.18014785  0.14198201  0.14116171    -0.12440
C604        C  0.16689244  0.17199953  0.12949606     0.01210
C605        C  0.13687828  0.18428074  0.14284456    -0.10970
C606        C  0.11909627  0.16588046  0.16727418     0.03700
C607        C  0.13121917  0.13405171  0.17628620    -0.10390
H608        H  0.20539290  0.13461546  0.13388705     0.09300
H609        H  0.12915629  0.20947309  0.13617677     0.06830
H610        H  0.11815583  0.11893154  0.19467903     0.06670
O611        O  0.75728592  0.28636912  0.04176492    -0.81220
C612        C  0.63880000  0.27731849  0.96304674     0.98140
O613        O  0.65040325  0.25733066  0.98448242    -0.70330
O614        O  0.71191869  0.24398015  0.96560708    -0.73930
Al615      Al  0.69190031  0.25471346  0.00728425     1.48980
C616        C  0.74236923  0.24960645  0.95936220     0.93390
O617        O  0.74199548  0.33288732  0.96107092    -0.80150
O618        O  0.69071215  0.35283016  0.04231915    -0.73700
Al619      Al  0.74651629  0.30877289  0.00147267     1.90120
O620        O  0.69446157  0.35881823  0.97150512    -0.72770
O621        O  0.64116384  0.30466544  0.03505944    -0.72620
O622        O  0.64855084  0.30776683  0.96409410    -0.78280
O623        O  0.67135239  0.26115171  0.04933482    -0.76490
O624        O  0.70323148  0.29773296  0.00388846    -1.12620
O625        O  0.72981565  0.24041296  0.03103498    -0.71820
C626        C  0.75189605  0.25593949  0.04697176     0.98900
C627        C  0.72205182  0.35663665  0.95536459     0.95300
Al628      Al  0.67122763  0.32874097  0.00331207     1.55560
O629        O  0.75878666  0.27175386  0.97468395    -0.76440
C630        C  0.64515070  0.27834448  0.05305172     0.99470
C631        C  0.72153449  0.36069284  0.04650169     0.94350
O632        O  0.74360485  0.34787735  0.02785769    -0.81760
O633        O  0.75506525  0.95901901  0.28716526    -0.81220
C634        C  0.64275452  0.04678533  0.27700814     0.98140
O635        O  0.65630492  0.02926245  0.25450349    -0.70330
O636        O  0.71998786  0.04160707  0.24408186    -0.73930
Al637      Al  0.69497856  0.00187850  0.25211873     1.48980
C638        C  0.75141765  0.04174145  0.24757276     0.93390
O639        O  0.74469228  0.04246222  0.33026158    -0.80150
O640        O  0.69016763  0.96260292  0.35068255    -0.73700
Al641      Al  0.74783016  0.00087607  0.30836369     1.90120
O642        O  0.69781836  0.03290267  0.35783168    -0.72770
O643        O  0.64194843  0.97316362  0.30187573    -0.72620
O644        O  0.65068048  0.04254831  0.30788848    -0.78280
O645        O  0.66909192  0.96276663  0.25483524    -0.76490
O646        O  0.70478834  0.00179527  0.29602961    -1.12620
O647        O  0.73148444  0.97383718  0.23919971    -0.71820
C648        C  0.75133844  0.95532601  0.25571278     0.98900
C649        C  0.72555915  0.04872300  0.35483036     0.95300
Al650      Al  0.67270109  0.00271385  0.32715347     1.55560
O651        O  0.76464286  0.02386490  0.27014616    -0.76440
C652        C  0.64421173  0.95769973  0.27371618     0.99470
C653        C  0.72007820  0.95912914  0.36156416     0.94350
O654        O  0.74278750  0.97743807  0.34978685    -0.81760
C655        C  0.86982897  0.16545369  0.17335672     0.03710
C656        C  0.85188748  0.18344368  0.14933767    -0.12440
C657        C  0.82891159  0.16766869  0.12884448     0.01210
C658        C  0.82136506  0.13398666  0.13360818    -0.10970
C659        C  0.83641507  0.11540468  0.16005206     0.03700
C660        C  0.86277240  0.13143963  0.17803639    -0.10390
H661        H  0.85505356  0.21034363  0.14710952     0.09300
H662        H  0.80178826  0.12459769  0.11816115     0.06830
H663        H  0.87655989  0.11922428  0.19778965     0.06670
C664        C  0.82941058  0.83218586  0.87792526     0.03710
C665        C  0.82387874  0.86617927  0.87100769    -0.12440
C666        C  0.83700557  0.87997754  0.84135667     0.01210
C667        C  0.86248620  0.86351809  0.82386367    -0.10970
C668        C  0.86901089  0.83012992  0.83112012     0.03700
C669        C  0.85164223  0.81429074  0.85726696    -0.10390
H670        H  0.80568936  0.88044563  0.88535864     0.09300
H671        H  0.87314111  0.87477912  0.80136307     0.06830
H672        H  0.85430443  0.78742468  0.86036625     0.06670
C673        C  0.81962615  0.08427159  0.17424407    -0.04760
C674        C  0.83126482  0.07089561  0.20506244    -0.01870
C675        C  0.80841057  0.06253099  0.23056445     0.03120
C676        C  0.77381958  0.05888923  0.22289601    -0.04760
C677        C  0.76324266  0.06445315  0.18911627    -0.01860
C678        C  0.78651419  0.07535263  0.16461086     0.03110
C679        C  0.86616444  0.06115582  0.20891492     0.37760
C680        C  0.72877065  0.05854014  0.17881268     0.37750
C681        C  0.77791394  0.07123698  0.12927228     0.36180
C682        C  0.82109777  0.05913625  0.26476439     0.36180
N683        N  0.77069254  0.06765080  0.10117542    -0.38640
N684        N  0.83155122  0.05697813  0.29195225    -0.38640
N685        N  0.70130061  0.05410513  0.17044867    -0.38090
N686        N  0.89393779  0.05316341  0.21217408    -0.38090
C687        C  0.80853220  0.18880010  0.10663133    -0.04760
C688        C  0.77581784  0.19776787  0.11689013    -0.01870
C689        C  0.75788977  0.22182328  0.09847414     0.03120
C690        C  0.77278439  0.23681845  0.07001727    -0.04760
C691        C  0.80560589  0.22820374  0.05995849    -0.01860
C692        C  0.82341699  0.20384348  0.07814407     0.03110
C693        C  0.76084837  0.18258480  0.14663835     0.37760
C694        C  0.82044436  0.24334375  0.03012849     0.37750
C695        C  0.85656181  0.19347311  0.06699814     0.36180
C696        C  0.72432550  0.23147454  0.10905197     0.36180
N697        N  0.88282271  0.18507790  0.05771320    -0.38640
N698        N  0.69770367  0.23914954  0.11791244    -0.38640
N699        N  0.83225786  0.25540407  0.00635505    -0.38090
N700        N  0.74898428  0.17030569  0.17027201    -0.38090
C701        C  0.06274726  0.23577576  0.22558324    -0.04760
C702        C  0.08405915  0.21275272  0.24177202    -0.01870
C703        C  0.09737068  0.18558952  0.22385665     0.03120
C704        C  0.09368349  0.18404598  0.18816012    -0.04760
C705        C  0.07141242  0.20680984  0.17214234    -0.01860
C706        C  0.05653858  0.23298051  0.19069108     0.03110
C707        C  0.09373785  0.21793340  0.27677309     0.37760
C708        C  0.06304595  0.20267325  0.13668413     0.37750
C709        C  0.03549197  0.25738589  0.17365914     0.36180
C710        C  0.11236439  0.15869735  0.24339602     0.36180
N711        N  0.01941057  0.27720911  0.15969221    -0.38640
N712        N  0.12296677  0.13730317  0.26009632    -0.38640
N713        N  0.05637716  0.19940426  0.10841862    -0.38090
N714        N  0.10258751  0.22214234  0.30427380    -0.38090
C715        C  0.89333043  0.18423560  0.19537399    -0.04760
C716        C  0.89026205  0.18356126  0.23103412    -0.01870
C717        C  0.90993372  0.20515846  0.25102224     0.03120
C718        C  0.92931898  0.23061540  0.23536298    -0.04760
C719        C  0.92873924  0.23335315  0.19961929    -0.01860
C720        C  0.91488596  0.20777735  0.18021121     0.03110
C721        C  0.86598976  0.16188439  0.24737034     0.37760
C722        C  0.93929949  0.26357923  0.18220084     0.37750
C723        C  0.92254633  0.20629945  0.14432161     0.36180
C724        C  0.90884291  0.20158856  0.28753510     0.36180
N725        N  0.92909379  0.20542025  0.11585208    -0.38640
N726        N  0.90804263  0.19848844  0.31661631    -0.38640
N727        N  0.94659964  0.28798583  0.16827788    -0.38090
N728        N  0.84663174  0.14470851  0.26051986    -0.38090
C729        C  0.22656920  0.06649027  0.23118826    -0.04760
C730        C  0.22007750  0.05525301  0.19751951    -0.01870
C731        C  0.19719753  0.07276617  0.17702427     0.03120
C732        C  0.18394979  0.10331816  0.18827702    -0.04760
C733        C  0.19417764  0.11671329  0.21956085    -0.01860
C734        C  0.21203527  0.09676955  0.24238500     0.03110
C735        C  0.23558613  0.02518612  0.18379754     0.37760
C736        C  0.18963875  0.15208989  0.22686896     0.37750
C737        C  0.21408396  0.10750802  0.27725776     0.36180
C738        C  0.18813833  0.06005776  0.14388819     0.36180
N739        N  0.21381242  0.11619976  0.30512062    -0.38640
N740        N  0.18097397  0.04997923  0.11745624    -0.38640
N741        N  0.18682193  0.18038640  0.23255413    -0.38090
N742        N  0.24793490  0.00139348  0.17253658    -0.38090
C743        C  0.18801178  0.19284114  0.10775204    -0.04760
C744        C  0.19742846  0.18069899  0.07568401    -0.01870
C745        C  0.22104689  0.19824887  0.05650031     0.03120
C746        C  0.23407621  0.22859043  0.06886924    -0.04760
C747        C  0.22343327  0.24168573  0.10008577    -0.01860
C748        C  0.20136666  0.22313894  0.12022471     0.03110
C749        C  0.18231925  0.15046330  0.06225418     0.37760
C750        C  0.23445186  0.27456655  0.11102437     0.37750
C751        C  0.19323256  0.23483266  0.15398910     0.36180
C752        C  0.23094967  0.18564458  0.02354095     0.36180
N753        N  0.18684508  0.24421246  0.18090517    -0.38640
N754        N  0.23860799  0.17522077  0.99736148    -0.38640
N755        N  0.24307920  0.30082614  0.11970780    -0.38090
N756        N  0.17015388  0.12643087  0.05157867    -0.38090
C757        C  0.81277565  0.89246303  0.19299992    -0.04760
C758        C  0.77717872  0.89147352  0.19031568    -0.01870
C759        C  0.75718572  0.91169423  0.21124186     0.03120
C760        C  0.77205560  0.93117894  0.23679449    -0.04760
C761        C  0.80724188  0.93092276  0.24090810    -0.01860
C762        C  0.82758339  0.91266172  0.21834654     0.03110
C763        C  0.76025555  0.86959089  0.16650546     0.37760
C764        C  0.82282482  0.95067462  0.26737621     0.37750
C765        C  0.86377447  0.91603423  0.22063407     0.36180
C766        C  0.72104930  0.91225135  0.20620601     0.36180
N767        N  0.89256050  0.91899746  0.22297217    -0.38640
N768        N  0.69241546  0.91246978  0.20137386    -0.38640
N769        N  0.83529553  0.96616029  0.28861938    -0.38090
N770        N  0.74589671  0.85297986  0.14745417    -0.38090
C771        C  0.81238532  0.82051363  0.10047732    -0.04760
C772        C  0.79522875  0.79483724  0.11797633    -0.01870
C773        C  0.77517557  0.77239388  0.10014549     0.03120
C774        C  0.76715423  0.77904141  0.06632417    -0.04760
C775        C  0.78044295  0.80767111  0.05001969    -0.01860
C776        C  0.80429933  0.82760781  0.06673373     0.03110
C777        C  0.79667304  0.79249538  0.15460727     0.37760
C778        C  0.76959036  0.81706847  0.01640467     0.37750
C779        C  0.82012787  0.85549690  0.04959843     0.36180
C780        C  0.76468771  0.74167322  0.11630299     0.36180
N781        N  0.83274396  0.87779246  0.03596726    -0.38640
N782        N  0.75771780  0.71701609  0.12982385    -0.38640
N783        N  0.76105893  0.82603103  0.98995249    -0.38090
N784        N  0.79714918  0.79086767  0.18381372    -0.38090
C785        C  0.80817786  0.81295000  0.90192153    -0.04760
C786        C  0.77262397  0.81518797  0.90063869    -0.01870
C787        C  0.75298655  0.79178798  0.91806912     0.03120
C788        C  0.76844960  0.76591441  0.93690057    -0.04760
C789        C  0.80372833  0.76380606  0.93858389    -0.01860
C790        C  0.82338310  0.78811356  0.92247801     0.03110
C791        C  0.75532770  0.84180113  0.88257141     0.37760
C792        C  0.82006344  0.73755664  0.95811486     0.37750
C793        C  0.85926536  0.78846503  0.92874036     0.36180
C794        C  0.71662667  0.79529430  0.91724808     0.36180
N795        N  0.88769941  0.78833327  0.93462621    -0.38640
N796        N  0.68785083  0.79930530  0.91658610    -0.38640
N797        N  0.83317187  0.71651752  0.97339850    -0.38090
N798        N  0.74045538  0.86303865  0.86930979    -0.38090
C799        C  0.18848816  0.90323943  0.18784932    -0.04760
C800        C  0.21360844  0.88730767  0.20758112    -0.01870
C801        C  0.23326964  0.90626366  0.22958563     0.03120
C802        C  0.22479067  0.93991672  0.23525765    -0.04760
C803        C  0.19606405  0.95422382  0.21974808    -0.01860
C804        C  0.17939790  0.93659514  0.19427266     0.03110
C805        C  0.21658027  0.85105179  0.20840406     0.37760
C806        C  0.18248254  0.98614217  0.23081871     0.37750
C807        C  0.15221514  0.95225089  0.17551645     0.36180
C808        C  0.26051097  0.89059429  0.24830875     0.36180
N809        N  0.13061123  0.96478215  0.16051502    -0.38640
N810        N  0.28218462  0.87819229  0.26332445    -0.38640
N811        N  0.17063943  0.01100401  0.24007495    -0.38090
N812        N  0.21832253  0.82215266  0.21007561    -0.38090
C813        C  0.06575110  0.77803487  0.23721320    -0.04760
C814        C  0.05765473  0.78261949  0.20245813    -0.01870
C815        C  0.07650470  0.80460796  0.18254692     0.03120
C816        C  0.10443044  0.82089345  0.19646713    -0.04760
C817        C  0.11104021  0.81841812  0.23156384    -0.01860
C818        C  0.09091996  0.79801290  0.25205527     0.03110
C819        C  0.02922314  0.76591938  0.18687014     0.37760
C820        C  0.13873000  0.83623644  0.24711080     0.37750
C821        C  0.09612699  0.79851418  0.28835914     0.36180
C822        C  0.06669537  0.81107998  0.14776854     0.36180
N823        N  0.10024560  0.80028228  0.31724587    -0.38640
N824        N  0.05843416  0.81633642  0.12023355    -0.38640
N825        N  0.16011312  0.85045781  0.26062635    -0.38090
N826        N  0.00674348  0.75275119  0.17406426    -0.38090
C827        C  0.94046060  0.76512008  0.22488132    -0.04760
C828        C  0.94841042  0.79910531  0.21804870    -0.01870
C829        C  0.92823668  0.81791283  0.19605712     0.03120
C830        C  0.89976084  0.80337147  0.18119758    -0.04760
C831        C  0.89333839  0.76883437  0.18573928    -0.01860
C832        C  0.91307872  0.74999689  0.20830391     0.03110
C833        C  0.97731368  0.81523120  0.23333197     0.37760
C834        C  0.86705463  0.75201517  0.16708499     0.37750
C835        C  0.90386224  0.71559657  0.21576078     0.36180
C836        C  0.93724320  0.85222046  0.18792348     0.36180
N837        N  0.89627651  0.68829725  0.22180472    -0.38640
N838        N  0.94467889  0.87939742  0.18118712    -0.38640
N839        N  0.84714226  0.73711451  0.15211181    -0.38090
N840        N  0.00005888  0.82848941  0.24554895    -0.38090
C841        C  0.19023082  0.81195908  0.10692461    -0.04760
C842        C  0.17256638  0.79566017  0.08074455    -0.01870
C843        C  0.18841137  0.77047601  0.06180686     0.03120
C844        C  0.22190436  0.76179950  0.06877444    -0.04760
C845        C  0.23903781  0.77675888  0.09566844    -0.01860
C846        C  0.22420451  0.80332115  0.11328361     0.03110
C847        C  0.13870197  0.80609045  0.07200092     0.37760
C848        C  0.27126530  0.76336232  0.10640202     0.37750
C849        C  0.24528098  0.82263042  0.13573909     0.36180
C850        C  0.16988848  0.75302534  0.03583743     0.36180
N851        N  0.26381331  0.83798520  0.15199226    -0.38640
N852        N  0.15408070  0.73899326  0.01593067    -0.38640
N853        N  0.29631903  0.75195243  0.11582815    -0.38090
N854        N  0.11185345  0.81448164  0.06460188    -0.38090
C855        C  0.18861626  0.81171470  0.89440420    -0.04760
C856        C  0.22386033  0.81033760  0.88893819    -0.01870
C857        C  0.24345007  0.78633976  0.90595305     0.03120
C858        C  0.22820509  0.76394926  0.92872429    -0.04760
C859        C  0.19277553  0.76234395  0.93006176    -0.01860
C860        C  0.17347719  0.78809824  0.91603202     0.03110
C861        C  0.24056775  0.83302263  0.86575975     0.37760
C862        C  0.17580291  0.73239919  0.94172215     0.37750
C863        C  0.13797945  0.79021773  0.92425317     0.36180
C864        C  0.27840486  0.78198132  0.89659968     0.36180
N865        N  0.10978619  0.79174081  0.93114577    -0.38640
N866        N  0.30585591  0.77805351  0.88789274    -0.38640
N867        N  0.16232119  0.70805715  0.94981450    -0.38090
N868        N  0.25475946  0.85117609  0.84803387    -0.38090
C869        C  0.06445011  0.76421491  0.77595791    -0.04760
C870        C  0.05570690  0.77460515  0.80869734    -0.01870
C871        C  0.07354934  0.80048780  0.82414389     0.03120
C872        C  0.10096520  0.81509744  0.80727197    -0.04760
C873        C  0.10923245  0.80497606  0.77406258    -0.01860
C874        C  0.09214020  0.77814450  0.75936240     0.03110
C875        C  0.03016215  0.75722233  0.82764292     0.37760
C876        C  0.13364905  0.82282775  0.75391512     0.37750
C877        C  0.10472075  0.76274125  0.72864842     0.36180
C878        C  0.06341367  0.81261181  0.85723299     0.36180
N879        N  0.11546981  0.74953719  0.70495993    -0.38640
N880        N  0.05510376  0.82250067  0.88342104    -0.38640
N881        N  0.15178065  0.83701214  0.73615429    -0.38090
N882        N  0.01105703  0.74327298  0.84441771    -0.38090
C883        C  0.89007201  0.80962851  0.80876531    -0.04760
C884        C  0.91481770  0.78934001  0.82371354    -0.01870
C885        C  0.92853571  0.76302373  0.80543520     0.03120
C886        C  0.92533232  0.76270347  0.76994971    -0.04760
C887        C  0.89973071  0.78187249  0.75470136    -0.01860
C888        C  0.88157548  0.80509609  0.77427863     0.03110
C889        C  0.92729729  0.79612995  0.85743597     0.37760
C890        C  0.88867575  0.77404251  0.72074155     0.37750
C891        C  0.85417372  0.82364650  0.75885448     0.36180
C892        C  0.94019521  0.73375453  0.82377906     0.36180
N893        N  0.83266031  0.83838999  0.74589232    -0.38640
N894        N  0.94801904  0.70978541  0.83830247    -0.38640
N895        N  0.87871119  0.76705235  0.69422031    -0.38090
N896        N  0.93835721  0.80197134  0.88379500    -0.38090
C897        C  0.22700024  0.23583747  0.93757292    -0.04760
C898        C  0.19274006  0.23243269  0.94575978    -0.01870
C899        C  0.17344344  0.20781608  0.92967534     0.03120
C900        C  0.18811722  0.18713210  0.90468183    -0.04760
C901        C  0.22327304  0.18929589  0.89846736    -0.01860
C902        C  0.24220438  0.21431983  0.91407132     0.03110
C903        C  0.17756289  0.25337959  0.97160852     0.37760
C904        C  0.24124579  0.16541166  0.87753915     0.37750
C905        C  0.27765717  0.21794577  0.90590358     0.36180
C906        C  0.13873162  0.20295987  0.93970395     0.36180
N907        N  0.30579832  0.22060929  0.89919614    -0.38640
N908        N  0.11106918  0.19912543  0.94770826    -0.38640
N909        N  0.25700891  0.14625249  0.86230006    -0.38090
N910        N  0.16536668  0.27006893  0.99215451    -0.38090
C911        C  0.18557978  0.10599829  0.81615073    -0.04760
C912        C  0.21261235  0.12073372  0.79842752    -0.01870
C913        C  0.23344208  0.10072762  0.77826825     0.03120
C914        C  0.22514160  0.06693117  0.77334043    -0.04760
C915        C  0.19444329  0.05414420  0.78629906    -0.01860
C916        C  0.17598118  0.07301567  0.80954836     0.03110
C917        C  0.21741979  0.15678716  0.79893946     0.37760
C918        C  0.18051808  0.02263092  0.77467804     0.36470
C919        C  0.14636590  0.05909981  0.82562710     0.36180
C920        C  0.26119106  0.11564556  0.75993583     0.36180
N921        N  0.12278785  0.04800395  0.83845237    -0.38640
N922        N  0.28308978  0.12765863  0.74508193    -0.38640
N923        N  0.16868850  0.99802039  0.76498875    -0.38090
N924        N  0.22104229  0.18552723  0.79910463    -0.38090
C925        C  0.22867690  0.93825676  0.77726939    -0.04760
C926        C  0.21620840  0.95168050  0.80815202    -0.01870
C927        C  0.19211464  0.93390410  0.82646648     0.03120
C928        C  0.18477657  0.90102392  0.81696040    -0.04760
C929        C  0.20292267  0.88535473  0.79052185    -0.01860
C930        C  0.22272050  0.90467560  0.76896121     0.03110
C931        C  0.22852254  0.98300015  0.82195305     0.37760
C932        C  0.20421678  0.84910341  0.78789054     0.37750
C933        C  0.23885481  0.88943781  0.73984281     0.36180
C934        C  0.17553680  0.94900633  0.85539134     0.36180
N935        N  0.25172533  0.87735789  0.71660904    -0.38640
N936        N  0.16229964  0.96112517  0.87839240    -0.38640
N937        N  0.20617237  0.82020641  0.78649896    -0.38090
N938        N  0.23869420  0.00751261  0.83361928    -0.38090
C939        C  0.06780649  0.23163370  0.76463800    -0.04760
C940        C  0.05780976  0.19915494  0.77392277    -0.01870
C941        C  0.07603536  0.18163715  0.79849547     0.03120
C942        C  0.10549195  0.19580079  0.81221790    -0.04760
C943        C  0.11615705  0.22797429  0.80173007    -0.01860
C944        C  0.09662689  0.24625877  0.77867999     0.03110
C945        C  0.02816180  0.18410351  0.75900742     0.37760
C946        C  0.14756064  0.24202045  0.81365038     0.37750
C947        C  0.10602791  0.28015983  0.76941814     0.36180
C948        C  0.06424316  0.14914015  0.80990186     0.36180
N949        N  0.11344958  0.30721792  0.76217186    -0.38640
N950        N  0.05492856  0.12319969  0.81887180    -0.38640
N951        N  0.17251760  0.25332825  0.82321531    -0.38090
N952        N  0.00473582  0.17176826  0.74711444    -0.38090
C953        C  0.80761799  0.19439656  0.89631044    -0.04760
C954        C  0.79166811  0.22341449  0.88344647    -0.01870
C955        C  0.76851270  0.24078882  0.90363557     0.03120
C956        C  0.76074105  0.22852307  0.93598189    -0.04760
C957        C  0.77584681  0.19908292  0.94846993    -0.01860
C958        C  0.79976252  0.18231847  0.92884910     0.03110
C959        C  0.79860463  0.23518938  0.84946834     0.37760
C960        C  0.76741663  0.18638110  0.98179948     0.37750
C961        C  0.81679225  0.15296050  0.94234975     0.36180
C962        C  0.75286627  0.27141590  0.89144397     0.36180
N963        N  0.83039891  0.12957947  0.95303610    -0.38640
N964        N  0.74035420  0.29584806  0.88185669    -0.38640
N965        N  0.76086456  0.17575492  0.00819563    -0.38090
N966        N  0.80410346  0.24487348  0.82246574    -0.38090
C967        C  0.90342181  0.18500389  0.81637821    -0.04760
C968        C  0.92527232  0.20859971  0.83132164    -0.01870
C969        C  0.94171532  0.23244460  0.81116061     0.03120
C970        C  0.93755766  0.23192456  0.77577311    -0.04760
C971        C  0.91893477  0.20605986  0.76050699    -0.01860
C972        C  0.90217935  0.18253036  0.78053224     0.03110
C973        C  0.93167571  0.20764855  0.86744137     0.37760
C974        C  0.91726922  0.20293771  0.72387924     0.37750
C975        C  0.88470906  0.15575486  0.76315218     0.36180
C976        C  0.96425625  0.25632439  0.82680626     0.36180
N977        N  0.87205204  0.13438990  0.74812001    -0.38640
N978        N  0.98232068  0.27522010  0.83935465    -0.38640
N979        N  0.91608948  0.19931348  0.69489342    -0.38090
N980        N  0.93677269  0.20688749  0.89622505    -0.38090
C981        C  0.77329923  0.06616615  0.77739113    -0.04760
C982        C  0.78251926  0.09869356  0.76751286    -0.01870
C983        C  0.80250878  0.11793592  0.78905242     0.03120
C984        C  0.81639323  0.10339467  0.81856274    -0.04760
C985        C  0.80648488  0.07147771  0.82907863    -0.01860
C986        C  0.78345702  0.05354488  0.80951713     0.03110
C987        C  0.76923036  0.11363423  0.73683450     0.37760
C988        C  0.81905726  0.05774269  0.86065563     0.37750
C989        C  0.77000268  0.02262250  0.82325347     0.36180
C990        C  0.80646393  0.15346131  0.78219237     0.36180
N991        N  0.75903048  0.99834585  0.83472920    -0.38640
N992        N  0.80922091  0.18175985  0.77659150    -0.38640
N993        N  0.82906557  0.04679198  0.88581602    -0.38090
N994        N  0.75857719  0.12625120  0.71274692    -0.38090
C995        C  0.77605078  0.93836172  0.77537934    -0.04760
C996        C  0.76755050  0.90491696  0.78185754    -0.01870
C997        C  0.78772168  0.88586160  0.80360305     0.03120
C998        C  0.81504269  0.90106388  0.82065861    -0.04760
C999        C  0.82466575  0.93380063  0.81265675    -0.01860
C1000       C  0.80632176  0.95182659  0.78850968     0.03110
C1001       C  0.74036235  0.88918063  0.76336679     0.37760
C1002       C  0.85407014  0.94840019  0.82842449     0.37750
C1003       C  0.81986629  0.98325179  0.77618130     0.36180
C1004       C  0.78196244  0.85002527  0.80611960     0.36180
N1005       N  0.83141517  0.00779713  0.76594567    -0.38640
N1006       N  0.77745843  0.82144490  0.80761700    -0.38640
N1007       N  0.87746930  0.96009507  0.84100629    -0.38090
N1008       N  0.71898598  0.87649451  0.74834057    -0.38090
C1009       C  0.27060957  0.07288157  0.39100607    -0.04760
C1010       C  0.26110871  0.06228240  0.42370432    -0.01870
C1011       C  0.24317317  0.08403257  0.44564013     0.03120
C1012       C  0.23280026  0.11620650  0.43464284    -0.04760
C1013       C  0.24280253  0.12699556  0.40210564    -0.01860
C1014       C  0.26238290  0.10584485  0.38090937     0.03110
C1015       C  0.26987657  0.02886097  0.43493550     0.37760
C1016       C  0.23338176  0.16016348  0.39063046     0.37750
C1017       C  0.27530459  0.11827085  0.34906733     0.36180
C1018       C  0.23560671  0.07333410  0.47984130     0.36180
N1019       N  0.28614357  0.12813794  0.32382774    -0.38640
N1020       N  0.22976590  0.06477296  0.50715554    -0.38640
N1021       N  0.22557069  0.18653087  0.38132765    -0.38090
N1022       N  0.27681389  0.00230785  0.44437130    -0.38090
C1023       C  0.07179924  0.26431089  0.37974821    -0.04760
C1024       C  0.07713374  0.22914588  0.38430801    -0.01870
C1025       C  0.10106906  0.21690856  0.40781053     0.03120
C1026       C  0.12089789  0.23923410  0.42672977    -0.04760
C1027       C  0.11615179  0.27433790  0.42160385    -0.01860
C1028       C  0.09080881  0.28657573  0.39968206     0.03110
C1029       C  0.05735113  0.20478927  0.36581863     0.37760
C1030       C  0.13756172  0.29861442  0.43823961     0.37750
C1031       C  0.08433820  0.32234370  0.39817051     0.36180
C1032       C  0.10622586  0.18104827  0.41131982     0.36180
N1033       N  0.07897106  0.35084795  0.39763434    -0.38640
N1034       N  0.11037137  0.15247180  0.41407147    -0.38640
N1035       N  0.15476917  0.31829012  0.45081442    -0.38090
N1036       N  0.04182967  0.18505302  0.35127071    -0.38090
C1037       C  0.06930423  0.26886935  0.61842444    -0.04760
C1038       C  0.07758279  0.28685468  0.58899809    -0.01870
C1039       C  0.09868538  0.27244449  0.56382911     0.03120
C1040       C  0.11427640  0.24029051  0.56840403    -0.04760
C1041       C  0.10758373  0.22333485  0.59901587    -0.01860
C1042       C  0.08478810  0.23685166  0.62316903     0.03110
C1043       C  0.06333593  0.31999087  0.58383572     0.37760
C1044       C  0.12521701  0.19243408  0.60679204     0.37750
C1045       C  0.07813850  0.21721231  0.65327143     0.36180
C1046       C  0.10295788  0.29110128  0.53273925     0.36180
N1047       N  0.07368812  0.20021057  0.67652979    -0.38640
N1048       N  0.10568131  0.30673321  0.50829740    -0.38640
N1049       N  0.13942094  0.16802819  0.61362002    -0.38090
N1050       N  0.05206451  0.34644900  0.57977067    -0.38090
C1051       C  0.25780482  0.06983091  0.62097136    -0.04760
C1052       C  0.28036822  0.08919035  0.60166734    -0.01870
C1053       C  0.26827896  0.11273459  0.57770321     0.03120
C1054       C  0.23314020  0.11840937  0.57315990    -0.04760
C1055       C  0.21064080  0.09746997  0.59075437    -0.01860
C1056       C  0.22270915  0.07361322  0.61447702     0.03110
C1057       C  0.31631408  0.08549229  0.60664520     0.37760
C1058       C  0.17488446  0.09977052  0.58415685     0.37750
C1059       C  0.19841606  0.05241685  0.63143398     0.36180
C1060       C  0.29264217  0.12959003  0.55641754     0.36180
N1061       N  0.17880876  0.03576804  0.64489829    -0.38640
N1062       N  0.31243930  0.14254136  0.53951027    -0.38640
N1063       N  0.14636989  0.10101368  0.57865940    -0.38090
N1064       N  0.34498172  0.08254254  0.61048693    -0.38090
C1065       C  0.26399345  0.27370043  0.56731017    -0.04760
C1066       C  0.27645402  0.30427890  0.55490231    -0.01870
C1067       C  0.29959405  0.32229569  0.57414893     0.03120
C1068       C  0.30951827  0.31000370  0.60603018    -0.04760
C1069       C  0.29663931  0.27938600  0.61851245    -0.01860
C1070       C  0.27414197  0.26102920  0.59879600     0.03110
C1071       C  0.26628789  0.31677316  0.52195577     0.37760
C1072       C  0.30610798  0.26674921  0.65160768     0.37750
C1073       C  0.26155222  0.22900089  0.61066471     0.36180
C1074       C  0.31377152  0.35308307  0.56088658     0.36180
N1075       N  0.25155311  0.20345757  0.62003615    -0.38640
N1076       N  0.32509199  0.37761327  0.55036656    -0.38640
N1077       N  0.31383293  0.25633383  0.67779635    -0.38090
N1078       N  0.25838699  0.32710399  0.49579007    -0.38090
C1079       C  0.31031320  0.30989780  0.39798877    -0.04760
C1080       C  0.27840225  0.29927678  0.38644682    -0.01870
C1081       C  0.26013059  0.27605186  0.40539920     0.03120
C1082       C  0.27445485  0.26195009  0.43460860    -0.04760
C1083       C  0.30668809  0.27137017  0.44550975    -0.01860
C1084       C  0.32433986  0.29593269  0.42762583     0.03110
C1085       C  0.26443416  0.31142002  0.35477143     0.37760
C1086       C  0.32100166  0.25696117  0.47602211     0.37750
C1087       C  0.35668659  0.30722596  0.44000085     0.36180
C1088       C  0.22630480  0.26713254  0.39514538     0.36180
N1089       N  0.38251379  0.31616879  0.44978034    -0.38640
N1090       N  0.19934008  0.26039383  0.38674939    -0.38640
N1091       N  0.33249740  0.24549273  0.50029478    -0.38090
N1092       N  0.25311019  0.32112491  0.32964529    -0.38090
C1093       C  0.43154605  0.11633043  0.76412883    -0.04760
C1094       C  0.40062901  0.11207707  0.78094968    -0.01870
C1095       C  0.37528429  0.09123936  0.76715104     0.03120
C1096       C  0.37977819  0.07439955  0.73553294    -0.04760
C1097       C  0.41029000  0.07933784  0.71822345    -0.01860
C1098       C  0.43584346  0.09993469  0.73217764     0.03110
C1099       C  0.39408851  0.13018145  0.81210568     0.37760
C1100       C  0.41633113  0.06168035  0.68675606     0.37750
C1101       C  0.46693842  0.10332912  0.71334863     0.36180
C1102       C  0.34459041  0.08724390  0.78647078     0.36180
N1103       N  0.49161499  0.10597551  0.69814373    -0.38640
N1104       N  0.32080571  0.08431449  0.80298465    -0.38640
N1105       N  0.42119726  0.04749717  0.66172576    -0.38090
N1106       N  0.38878153  0.14472527  0.83684043    -0.38090
C1107       C  0.56507161  0.23574859  0.89012060    -0.04760
C1108       C  0.58546910  0.21449384  0.91001060    -0.01870
C1109       C  0.60943063  0.22783186  0.93304865     0.03120
C1110       C  0.61356669  0.26332137  0.93752585    -0.04760
C1111       C  0.59247276  0.28456591  0.91839429    -0.01860
C1112       C  0.56876820  0.27126296  0.89512465     0.03110
C1113       C  0.58117176  0.17846795  0.90789557     0.37760
C1114       C  0.59396455  0.32056113  0.92338958     0.37750
C1115       C  0.54815763  0.29529993  0.87681045     0.36180
C1116       C  0.62951468  0.20396136  0.95211370     0.36180
N1117       N  0.53203287  0.31489183  0.86249417    -0.38640
N1118       N  0.64505382  0.18452292  0.96726477    -0.38640
N1119       N  0.59483925  0.34925882  0.92734521    -0.38090
N1120       N  0.57766030  0.14974765  0.90646528    -0.38090
C1121       C  0.57432028  0.11830209  0.77067159    -0.04760
C1122       C  0.60826123  0.12746159  0.76688279    -0.01870
C1123       C  0.63193304  0.10443044  0.75346961     0.03120
C1124       C  0.62167992  0.07264306  0.74144559    -0.04760
C1125       C  0.58759671  0.06356468  0.74537760    -0.01860
C1126       C  0.56438090  0.08579999  0.76088991     0.03110
C1127       C  0.61897181  0.16040018  0.77782860     0.37760
C1128       C  0.57644341  0.03077953  0.73475744     0.37750
C1129       C  0.53033505  0.07488092  0.76744145     0.36180
C1130       C  0.66701129  0.11349218  0.75261722     0.36180
N1131       N  0.50342531  0.06571827  0.77324496    -0.38640
N1132       N  0.69497550  0.12103222  0.75268986    -0.38640
N1133       N  0.56693424  0.00476285  0.72640666    -0.38090
N1134       N  0.62736044  0.18667679  0.78668780    -0.38090
C1135       C  0.42352056  0.23130901  0.88115700    -0.04760
C1136       C  0.39592127  0.25127237  0.87097111    -0.01870
C1137       C  0.37776995  0.27047428  0.89482671     0.03120
C1138       C  0.38145658  0.26435401  0.92969750    -0.04760
C1139       C  0.40605159  0.24066241  0.94005571    -0.01860
C1140       C  0.42854677  0.22626749  0.91624085     0.03110
C1141       C  0.38392625  0.24937915  0.83646122     0.37760
C1142       C  0.40799749  0.23035761  0.97511279     0.37750
C1143       C  0.45705839  0.20687177  0.92813451     0.36180
C1144       C  0.35768902  0.29831790  0.88316336     0.36180
N1145       N  0.47996410  0.19161451  0.93762965    -0.38640
N1146       N  0.34379511  0.32167666  0.87292648    -0.38640
N1147       N  0.40959503  0.22104383  0.00275950    -0.38090
N1148       N  0.37367530  0.24688014  0.80921618    -0.38090
C1149       C  0.59685575  0.32497756  0.69969704    -0.04760
C1150       C  0.60172736  0.32437901  0.73527201    -0.01870
C1151       C  0.58616937  0.29953299  0.75503660     0.03120
C1152       C  0.56643464  0.27467858  0.73936461    -0.04760
C1153       C  0.56275915  0.27525520  0.70360511    -0.01860
C1154       C  0.57379228  0.30279360  0.68508604     0.03110
C1155       C  0.62279176  0.34875250  0.75213667     0.37760
C1156       C  0.55245986  0.24592924  0.68464391     0.37750
C1157       C  0.56370862  0.30667091  0.64994301     0.36180
C1158       C  0.59376726  0.29771186  0.79085545     0.36180
N1159       N  0.55570358  0.30958380  0.62197464    -0.38640
N1160       N  0.60073894  0.29635590  0.81920200    -0.38640
N1161       N  0.54582549  0.22221069  0.66930151    -0.38090
N1162       N  0.63888561  0.36827992  0.76633667    -0.38090
C1163       C  0.43800975  0.26954702  0.72818508    -0.04760
C1164       C  0.41851553  0.29479517  0.74389919    -0.01870
C1165       C  0.39742938  0.31516300  0.72441404     0.03120
C1166       C  0.40100159  0.31570453  0.68873387    -0.04760
C1167       C  0.42461067  0.29389630  0.67337336    -0.01860
C1168       C  0.44044096  0.26882095  0.69265579     0.03110
C1169       C  0.42071747  0.30124946  0.77997410     0.37760
C1170       C  0.43310851  0.29751642  0.63786815     0.37750
C1171       C  0.45948759  0.24281002  0.67570622     0.36180
C1172       C  0.37141136  0.33399679  0.74188418     0.36180
N1173       N  0.47371261  0.22166265  0.66171423    -0.38640
N1174       N  0.35112948  0.34875329  0.75668717    -0.38640
N1175       N  0.44000667  0.30048741  0.60961549    -0.38090
N1176       N  0.42296457  0.30788217  0.80834744    -0.38090
C1177       C  0.76332887  0.57317875  0.88501760    -0.04760
C1178       C  0.73387737  0.59258078  0.87870205    -0.01870
C1179       C  0.71976294  0.61389033  0.90388013     0.03120
C1180       C  0.73550027  0.61788326  0.93569826    -0.04760
C1181       C  0.76630786  0.59981081  0.94114209    -0.01860
C1182       C  0.77936167  0.57725800  0.91648756     0.03110
C1183       C  0.71835778  0.59216015  0.84556967     0.37760
C1184       C  0.78516514  0.60364967  0.97228332     0.37750
C1185       C  0.80879737  0.55711029  0.92421194     0.36180
C1186       C  0.68929972  0.63244025  0.89623755     0.36180
N1187       N  0.83216811  0.54092398  0.93042372    -0.38640
N1188       N  0.66488350  0.64698460  0.88998907    -0.38640
N1189       N  0.80052074  0.60655590  0.99693781    -0.38090
N1190       N  0.70522749  0.59316646  0.81950644    -0.38090
C1191       C  0.87957792  0.57316447  0.76698879    -0.04760
C1192       C  0.90136069  0.56359078  0.74030957    -0.01870
C1193       C  0.92213575  0.58742034  0.72397161     0.03120
C1194       C  0.92272166  0.62103503  0.73503925    -0.04760
C1195       C  0.89914433  0.63086309  0.76035899    -0.01860
C1196       C  0.87823220  0.60705644  0.77642354     0.03110
C1197       C  0.90267205  0.52901462  0.72934188     0.37760
C1198       C  0.89413818  0.66594896  0.76825842     0.37750
C1199       C  0.85451044  0.61756373  0.80221974     0.36180
C1200       C  0.94137328  0.57741991  0.69459102     0.36180
N1201       N  0.83554447  0.62577986  0.82279332    -0.38640
N1202       N  0.95562957  0.56936874  0.67044238    -0.38640
N1203       N  0.88917732  0.69380722  0.77451930    -0.38090
N1204       N  0.90475597  0.50165139  0.72000838    -0.38090
C1205       C  0.92501710  0.38285430  0.73816197    -0.04760
C1206       C  0.91898732  0.38656640  0.77378132    -0.01870
C1207       C  0.89664029  0.41137317  0.78658319     0.03120
C1208       C  0.87690185  0.43110475  0.76454339    -0.04760
C1209       C  0.87949988  0.42411905  0.72911134    -0.01860
C1210       C  0.90409289  0.40150301  0.71615946     0.03110
C1211       C  0.93438237  0.36408172  0.79819906     0.37760
C1212       C  0.85613455  0.43912210  0.70528267     0.37750
C1213       C  0.90724963  0.39737117  0.67987167     0.36180
C1214       C  0.89442461  0.41648522  0.82284415     0.36180
N1215       N  0.90961877  0.39416433  0.65089902    -0.38640
N1216       N  0.89282251  0.42047261  0.85177098    -0.38640
N1217       N  0.83765702  0.45072315  0.68591900    -0.38090
N1218       N  0.94621390  0.34628997  0.81804687    -0.38090
C1219       C  0.75880745  0.42896622  0.88090372    -0.04760
C1220       C  0.72838369  0.41053117  0.87538501    -0.01870
C1221       C  0.71610800  0.38761446  0.89986935     0.03120
C1222       C  0.73307745  0.38286317  0.93060914    -0.04760
C1223       C  0.76300443  0.40097500  0.93652245    -0.01860
C1224       C  0.77589959  0.42351791  0.91200020     0.03110
C1225       C  0.70888628  0.41454534  0.84463554     0.37760
C1226       C  0.78054748  0.39683097  0.96843600     0.37750
C1227       C  0.80682565  0.44107841  0.91946052     0.36180
C1228       C  0.68657465  0.36765776  0.89276343     0.36180
N1229       N  0.83155225  0.45491941  0.92560454    -0.38640
N1230       N  0.66324971  0.35152572  0.88685445    -0.38640
N1231       N  0.79468156  0.39377567  0.99381364    -0.38090
N1232       N  0.69288907  0.41762193  0.82039701    -0.38090
C1233       C  0.72208159  0.56888804  0.73516717    -0.04760
C1234       C  0.73471956  0.59849518  0.72123417    -0.01870
C1235       C  0.71522606  0.61664720  0.69813050     0.03120
C1236       C  0.68359293  0.60402029  0.68745331    -0.04760
C1237       C  0.67098599  0.57430062  0.70186423    -0.01860
C1238       C  0.68986876  0.55721886  0.72643020     0.03110
C1239       C  0.76788095  0.61024911  0.73083678     0.37760
C1240       C  0.63907704  0.56078711  0.69076726     0.37750
C1241       C  0.67669706  0.52689186  0.74163022     0.36180
C1242       C  0.72789725  0.64861569  0.68632329     0.36180
N1243       N  0.66593472  0.50279396  0.75366547    -0.38640
N1244       N  0.73886365  0.67384868  0.67725119    -0.38640
N1245       N  0.61364056  0.54997516  0.68194262    -0.38090
N1246       N  0.79430853  0.61953714  0.73841331    -0.38090
C1247       C  0.68966678  0.40084596  0.68832838    -0.04760
C1248       C  0.70766716  0.38665747  0.71568547    -0.01870
C1249       C  0.72980377  0.40650156  0.73414878     0.03120
C1250       C  0.73467831  0.43984384  0.72436095    -0.04760
C1251       C  0.71900898  0.45318458  0.69533192    -0.01860
C1252       C  0.69582462  0.43372526  0.67756212     0.03110
C1253       C  0.70396201  0.35147386  0.72429947     0.37760
C1254       C  0.72715718  0.48653716  0.68341188     0.37750
C1255       C  0.67853273  0.44725116  0.64827918     0.36180
C1256       C  0.74771657  0.39273287  0.76299187     0.36180
N1257       N  0.66474991  0.45806731  0.62492588    -0.38640
N1258       N  0.76207908  0.38178722  0.78593011    -0.38640
N1259       N  0.73381298  0.51284910  0.67320877    -0.38090
N1260       N  0.70103375  0.32341873  0.73098863    -0.38090
C1261       C  0.57500417  0.77101045  0.88301401    -0.04760
C1262       C  0.56574281  0.76908360  0.91738605    -0.01870
C1263       C  0.58845586  0.75600172  0.94153618     0.03120
C1264       C  0.61878072  0.74043817  0.93127198    -0.04760
C1265       C  0.62864625  0.74360859  0.89708372    -0.01860
C1266       C  0.60754303  0.76029602  0.87353290     0.03110
C1267       C  0.53282151  0.78057620  0.92812945     0.37760
C1268       C  0.66135020  0.73142625  0.88655189     0.37750
C1269       C  0.62039178  0.76932612  0.84051526     0.36180
C1270       C  0.58245003  0.76288016  0.97689358     0.36180
N1271       N  0.63082869  0.77713296  0.81438219    -0.38640
N1272       N  0.57768108  0.77067708  0.00460610    -0.38640
N1273       N  0.68759488  0.72201260  0.87823025    -0.38090
N1274       N  0.50654654  0.78963761  0.93674101    -0.38090
C1275       C  0.56913275  0.88718868  0.76643705    -0.04760
C1276       C  0.60061757  0.89039013  0.78245324    -0.01870
C1277       C  0.62571774  0.91185788  0.76889603     0.03120
C1278       C  0.62098765  0.92911630  0.73747637    -0.04760
C1279       C  0.59014650  0.92448201  0.72065859    -0.01860
C1280       C  0.56393929  0.90568177  0.73595954     0.03110
C1281       C  0.60753854  0.87148031  0.81303272     0.37760
C1282       C  0.58453172  0.94032837  0.68812697     0.37750
C1283       C  0.53063936  0.90840750  0.72158947     0.36180
C1284       C  0.65638110  0.91601527  0.78817100     0.36180
N1285       N  0.50423026  0.91206342  0.71003815    -0.38640
N1286       N  0.68015958  0.91922519  0.80462701    -0.38640
N1287       N  0.58001030  0.95286709  0.66213059    -0.38090
N1288       N  0.61312006  0.85646084  0.83743943    -0.38090
C1289       C  0.43356509  0.76698501  0.88940463    -0.04760
C1290       C  0.43533523  0.73324529  0.90203558    -0.01870
C1291       C  0.40981169  0.71968642  0.92325084     0.03120
C1292       C  0.38282279  0.73971114  0.93476197    -0.04760
C1293       C  0.38271138  0.77421332  0.92462029    -0.01860
C1294       C  0.40663158  0.78699549  0.90118236     0.03110
C1295       C  0.46403418  0.71194806  0.89455558     0.37760
C1296       C  0.35845784  0.79770784  0.93855110     0.37750
C1297       C  0.40269589  0.82099687  0.88898258     0.36180
C1298       C  0.41262707  0.68524666  0.93472162     0.36180
N1299       N  0.39881206  0.84809920  0.87940134    -0.38640
N1300       N  0.41498521  0.65780194  0.94387842    -0.38640
N1301       N  0.33956705  0.81686555  0.94966073    -0.38090
N1302       N  0.48686772  0.69482606  0.88887999    -0.38090
C1303       C  0.42901042  0.88486899  0.76598959    -0.04760
C1304       C  0.41355890  0.90759363  0.78871303    -0.01870
C1305       C  0.38970841  0.93149866  0.77704801     0.03120
C1306       C  0.38082374  0.93359254  0.74221026    -0.04760
C1307       C  0.39820015  0.91273954  0.71928135    -0.01860
C1308       C  0.42223330  0.88908748  0.73081944     0.03110
C1309       C  0.42302952  0.90776654  0.82409824     0.37760
C1310       C  0.39184400  0.91549040  0.68337921     0.37750
C1311       C  0.44163338  0.87104437  0.70558502     0.36180
C1312       C  0.37563376  0.95505142  0.80120928     0.36180
N1313       N  0.45719405  0.85731696  0.68508181    -0.38640
N1314       N  0.36458464  0.97377711  0.82059911    -0.38640
N1315       N  0.38757541  0.91749206  0.65456885    -0.38090
N1316       N  0.43094218  0.90877605  0.85221653    -0.38090
C1317       C  0.43735938  0.72688159  0.73547539    -0.04760
C1318       C  0.43947754  0.69176802  0.73927982    -0.01870
C1319       C  0.42640745  0.67068668  0.71392620     0.03120
C1320       C  0.41064087  0.68455133  0.68489171    -0.04760
C1321       C  0.41390025  0.71934214  0.67921427    -0.01860
C1322       C  0.42304211  0.74028907  0.70582419     0.03110
C1323       C  0.45451641  0.67715223  0.76928918     0.37760
C1324       C  0.41084236  0.73420759  0.64590928     0.37750
C1325       C  0.41565428  0.77575877  0.70305854     0.36180
C1326       C  0.43019315  0.63468917  0.71725284     0.36180
N1327       N  0.40840924  0.80369041  0.70049879    -0.38640
N1328       N  0.43361679  0.60607882  0.72044549    -0.38640
N1329       N  0.40941189  0.74667112  0.61951108    -0.38090
N1330       N  0.46613100  0.66542984  0.79338559    -0.38090
C1331       C  0.56457000  0.73526048  0.72702696    -0.04760
C1332       C  0.55549779  0.73145007  0.69275724    -0.01870
C1333       C  0.57259872  0.70798676  0.67252578     0.03120
C1334       C  0.60068522  0.69065460  0.68569364    -0.04760
C1335       C  0.61064078  0.69613877  0.71963921    -0.01860
C1336       C  0.59054705  0.71562911  0.74086019     0.03110
C1337       C  0.52690030  0.74956481  0.67903094     0.37760
C1338       C  0.64211691  0.68304079  0.73290573     0.37750
C1339       C  0.59488532  0.71265292  0.77712483     0.36180
C1340       C  0.56075176  0.70106346  0.63857658     0.36180
N1341       N  0.59778992  0.70814795  0.80585318    -0.38640
N1342       N  0.55126411  0.69545907  0.61153416    -0.38640
N1343       N  0.66717080  0.67289601  0.74372665    -0.38090
N1344       N  0.50406417  0.76385517  0.66797900    -0.38090
C1345       C  0.11981078  0.42916615  0.76229005    -0.04760
C1346       C  0.08867955  0.42486538  0.77934884    -0.01870
C1347       C  0.06398305  0.40272406  0.76657569     0.03120
C1348       C  0.06948137  0.38427922  0.73656004    -0.04760
C1349       C  0.10009856  0.38817223  0.71939118    -0.01860
C1350       C  0.12507281  0.41022087  0.73192966     0.03110
C1351       C  0.08105576  0.44372606  0.80974229     0.37760
C1352       C  0.10628911  0.36852549  0.68915096     0.37750
C1353       C  0.15613806  0.41276713  0.71296876     0.36180
C1354       C  0.03221190  0.39957262  0.78419911     0.36180
N1355       N  0.18063913  0.41475398  0.69737997    -0.38640
N1356       N  0.00698300  0.39744974  0.79849538    -0.38640
N1357       N  0.11113621  0.35276196  0.66509797    -0.38090
N1358       N  0.07472389  0.45868417  0.83397744    -0.38090
C1359       C  0.11248672  0.56900473  0.76851493    -0.04760
C1360       C  0.11526309  0.60352993  0.77523058    -0.01870
C1361       C  0.09465074  0.62709317  0.75785109     0.03120
C1362       C  0.07052652  0.61663923  0.73352525    -0.04760
C1363       C  0.06818704  0.58214352  0.72650042    -0.01860
C1364       C  0.08852461  0.55856579  0.74406127     0.03110
C1365       C  0.14027207  0.61499323  0.79915701     0.37760
C1366       C  0.04489665  0.57068753  0.70100231     0.37750
C1367       C  0.08424456  0.52314599  0.73720356     0.36180
C1368       C  0.09968255  0.66243871  0.76407156     0.36180
N1369       N  0.08056628  0.49497176  0.73159248    -0.38640
N1370       N  0.10491354  0.69041204  0.76935594    -0.38640
N1371       N  0.02694823  0.56109648  0.68023325    -0.38090
N1372       N  0.16024103  0.62413096  0.81823893    -0.38090
C1373       C  0.26736023  0.61658591  0.92933603    -0.04760
C1374       C  0.26380866  0.62431800  0.89461770    -0.01870
C1375       C  0.24894339  0.60097302  0.87197498     0.03120
C1376       C  0.23779702  0.56927179  0.88357857    -0.04760
C1377       C  0.24285979  0.56133496  0.91797526    -0.01860
C1378       C  0.25520355  0.58548225  0.94089231     0.03110
C1379       C  0.27476954  0.65672087  0.88239463     0.37760
C1380       C  0.23912429  0.52738572  0.92977188     0.37750
C1381       C  0.25211455  0.57909344  0.97674288     0.36180
C1382       C  0.24545064  0.60954855  0.83658281     0.36180
N1383       N  0.24773924  0.57343714  0.00503672    -0.38640
N1384       N  0.24278805  0.61658509  0.80834789    -0.38640
N1385       N  0.23845505  0.50060333  0.94072402    -0.38090
N1386       N  0.28352036  0.68265117  0.87282676    -0.38090
C1387       C  0.22799825  0.42374496  0.88305659    -0.04760
C1388       C  0.21962339  0.42705741  0.91752807    -0.01870
C1389       C  0.23853350  0.40957808  0.94246104     0.03120
C1390       C  0.26052289  0.38298044  0.93321651    -0.04760
C1391       C  0.26247863  0.37475331  0.89872707    -0.01860
C1392       C  0.25031391  0.39736781  0.87401860     0.03110
C1393       C  0.19177032  0.44836149  0.92738130     0.37760
C1394       C  0.27072237  0.34076079  0.88903438     0.37750
C1395       C  0.26198596  0.39344025  0.83972287     0.36180
C1396       C  0.23623953  0.42007539  0.97739045     0.36180
N1397       N  0.27325007  0.39005370  0.81303417    -0.38640
N1398       N  0.23495058  0.42948103  0.00499940    -0.38640
N1399       N  0.27485356  0.31300174  0.88170579    -0.38090
N1400       N  0.16934930  0.46517827  0.93520682    -0.38090
C1401       C  0.26946383  0.43916433  0.72465921    -0.04760
C1402       C  0.26759781  0.40420527  0.72736733    -0.01870
C1403       C  0.28955590  0.38423359  0.70840231     0.03120
C1404       C  0.31313504  0.39941236  0.68645939    -0.04760
C1405       C  0.31314308  0.43421046  0.68180928    -0.01860
C1406       C  0.29019589  0.45402058  0.69986000     0.03110
C1407       C  0.24070251  0.38890295  0.74666592     0.37760
C1408       C  0.33605331  0.44938678  0.65781594     0.37750
C1409       C  0.28572859  0.48876603  0.69031382     0.36180
C1410       C  0.28712521  0.34804832  0.71081404     0.36180
N1411       N  0.28149471  0.51590417  0.68096641    -0.38640
N1412       N  0.28486226  0.31925861  0.71297609    -0.38640
N1413       N  0.35441518  0.46150149  0.63877482    -0.38090
N1414       N  0.21895403  0.37670469  0.76160212    -0.38090
C1415       C  0.26873216  0.57243554  0.73853074    -0.04760
C1416       C  0.25470909  0.60202934  0.72457592    -0.01870
C1417       C  0.27500344  0.62378444  0.70557045     0.03120
C1418       C  0.30853935  0.61472889  0.69822394    -0.04760
C1419       C  0.32227076  0.58502301  0.71140608    -0.01860
C1420       C  0.30348782  0.56537503  0.73358195     0.03110
C1421       C  0.21966207  0.61062618  0.72993940     0.37760
C1422       C  0.35481626  0.57298056  0.69983820     0.37750
C1423       C  0.32023784  0.53686106  0.74926188     0.36180
C1424       C  0.26127329  0.65535147  0.69349035     0.36180
N1425       N  0.33384163  0.51430041  0.76163796    -0.38640
N1426       N  0.25028282  0.68042290  0.68370024    -0.38640
N1427       N  0.38028412  0.56278764  0.69014675    -0.38090
N1428       N  0.19170036  0.61755449  0.73391030    -0.38090
C1429       C  0.11682907  0.43126200  0.23565609    -0.04760
C1430       C  0.12317466  0.41263286  0.26578560    -0.01870
C1431       C  0.09867614  0.39070878  0.27972344     0.03120
C1432       C  0.06645716  0.38796444  0.26510879    -0.04760
C1433       C  0.06002332  0.40698203  0.23511977    -0.01860
C1434       C  0.08536911  0.42703127  0.21989552     0.03110
C1435       C  0.15561754  0.41439656  0.28224698     0.37760
C1436       C  0.02680743  0.40698864  0.22002076     0.37750
C1437       C  0.07891695  0.44321678  0.18773702     0.36180
C1438       C  0.10766259  0.36954875  0.30811775     0.36180
N1439       N  0.07388902  0.45546554  0.16169832    -0.38640
N1440       N  0.11549081  0.35247965  0.33041802    -0.38640
N1441       N  0.00031286  0.40710283  0.20800845    -0.38090
N1442       N  0.18094989  0.41450697  0.29654528    -0.38090
C1443       C  0.26410535  0.38103216  0.07441021    -0.04760
C1444       C  0.22936941  0.38935520  0.07608260    -0.01870
C1445       C  0.21717669  0.41274401  0.10002382     0.03120
C1446       C  0.23936860  0.42846450  0.12292489    -0.04760
C1447       C  0.27439884  0.42054619  0.12055388    -0.01860
C1448       C  0.28639635  0.39684252  0.09678213     0.03110
C1449       C  0.20575217  0.37471302  0.05238896     0.37760
C1450       C  0.29895185  0.43725267  0.14170167     0.37750
C1451       C  0.32173616  0.38778436  0.09623719     0.36180
C1452       C  0.18147537  0.42017248  0.10093399     0.36180
N1453       N  0.34986578  0.38041569  0.09586634    -0.38640
N1454       N  0.15300933  0.42609952  0.10139935    -0.38640
N1455       N  0.31878203  0.45039465  0.15839198    -0.38090
N1456       N  0.18668991  0.36344533  0.03352655    -0.38090
C1457       C  0.23708046  0.56806130  0.11681909    -0.04760
C1458       C  0.22758765  0.60208917  0.11883824    -0.01870
C1459       C  0.24330187  0.62647407  0.09801879     0.03120
C1460       C  0.26909815  0.61747160  0.07485078    -0.04760
C1461       C  0.27993126  0.58382569  0.07422153    -0.01860
C1462       C  0.26343456  0.55921002  0.09410862     0.03110
C1463       C  0.20240443  0.61234136  0.14325340     0.37760
C1464       C  0.30724941  0.57421332  0.05195460     0.37750
C1465       C  0.27267270  0.52431043  0.08977278     0.36180
C1466       C  0.23387822  0.66130747  0.10201003     0.36180
N1467       N  0.27994849  0.49650055  0.08589770    -0.38640
N1468       N  0.22603310  0.68885862  0.10654029    -0.38640
N1469       N  0.32893928  0.56658008  0.03405153    -0.38090
N1470       N  0.18233685  0.62050923  0.16275961    -0.38090
C1471       C  0.12039389  0.57576011  0.23356919    -0.04760
C1472       C  0.13134850  0.60333896  0.25302992    -0.01870
C1473       C  0.10860673  0.62148657  0.27335226     0.03120
C1474       C  0.07385243  0.61645499  0.27030171    -0.04760
C1475       C  0.06241600  0.59022643  0.24927773    -0.01860
C1476       C  0.08550979  0.56987994  0.23116514     0.03110
C1477       C  0.16565057  0.61490551  0.25000245     0.37760
C1478       C  0.02698907  0.58256276  0.24788020     0.37750
C1479       C  0.07307782  0.54335424  0.20972410     0.36180
C1480       C  0.12131954  0.64172374  0.30070658     0.36180
N1481       N  0.06267414  0.52270615  0.19220077    -0.38640
N1482       N  0.13211714  0.65574045  0.32379814    -0.38640
N1483       N  0.99902175  0.57500849  0.24701775    -0.38090
N1484       N  0.19270207  0.62485023  0.24673786    -0.38090
C1485       C  0.27281995  0.56738928  0.26967998    -0.04760
C1486       C  0.30808523  0.56535275  0.26641237    -0.01870
C1487       C  0.32868935  0.58371634  0.28841304     0.03120
C1488       C  0.31424410  0.60767626  0.31049822    -0.04760
C1489       C  0.27879796  0.61132833  0.31150836    -0.01860
C1490       C  0.25854359  0.58842291  0.29445434     0.03110
C1491       C  0.32337860  0.54256168  0.24225462     0.37760
C1492       C  0.26259635  0.63928602  0.32858185     0.37750
C1493       C  0.22361497  0.58528709  0.30444633     0.36180
C1494       C  0.36454999  0.57700276  0.28885598     0.36180
N1495       N  0.19621131  0.58214321  0.31361141    -0.38640
N1496       N  0.39312792  0.57165295  0.28909929    -0.38640
N1497       N  0.24947103  0.66143654  0.34213010    -0.38090
N1498       N  0.33571843  0.52455276  0.22296210    -0.38090
C1499       C  0.26376416  0.43598938  0.27762754    -0.04760
C1500       C  0.27921157  0.40826984  0.26243569    -0.01870
C1501       C  0.30351626  0.39004018  0.28022134     0.03120
C1502       C  0.31173810  0.39907692  0.31398256    -0.04760
C1503       C  0.29590318  0.42709945  0.32905459    -0.01860
C1504       C  0.27171719  0.44538112  0.31091486     0.03110
C1505       C  0.26979029  0.39830563  0.22838482     0.37760
C1506       C  0.30519461  0.43776946  0.36282590     0.37750
C1507       C  0.25567749  0.47442713  0.32608134     0.36180
C1508       C  0.31998931  0.36261048  0.26274790     0.36180
N1509       N  0.24277817  0.49752269  0.33814573    -0.38640
N1510       N  0.33309498  0.34184341  0.24715234    -0.38640
N1511       N  0.31250082  0.44628716  0.38977534    -0.38090
N1512       N  0.26231202  0.38988530  0.20145545    -0.38090
C1513       C  0.42384983  0.76700983  0.12242240    -0.04760
C1514       C  0.39666373  0.78713392  0.11215468    -0.01870
C1515       C  0.37291633  0.77512168  0.08829256     0.03120
C1516       C  0.37541444  0.74191747  0.07458835    -0.04760
C1517       C  0.40353168  0.72220122  0.08460967    -0.01860
C1518       C  0.42688927  0.73432026  0.10871415     0.03110
C1519       C  0.39225980  0.81987412  0.12749727     0.37760
C1520       C  0.40962972  0.68958924  0.06958952     0.37750
C1521       C  0.45474378  0.71292329  0.11877939     0.36180
C1522       C  0.34667242  0.79808697  0.07753946     0.36180
N1523       N  0.47688756  0.69562568  0.12636993    -0.38640
N1524       N  0.32587221  0.81669679  0.06926647    -0.38640
N1525       N  0.41497637  0.66376993  0.05740489    -0.38090
N1526       N  0.38871562  0.84581069  0.14005891    -0.38090
C1527       C  0.61314850  0.73314838  0.07541209    -0.04760
C1528       C  0.57852632  0.72944430  0.06910944    -0.01870
C1529       C  0.55468053  0.74895754  0.08718216     0.03120
C1530       C  0.56454565  0.76945506  0.11468467    -0.04760
C1531       C  0.59907627  0.77164558  0.12233240    -0.01860
C1532       C  0.62318832  0.75434806  0.10235762     0.03110
C1533       C  0.56747743  0.70679397  0.04275969     0.37760
C1534       C  0.60982621  0.79136665  0.15107340     0.37750
C1535       C  0.65853814  0.75792607  0.11008575     0.36180
C1536       C  0.52033166  0.75048241  0.07526666     0.36180
N1537       N  0.68664747  0.76096716  0.11667045    -0.38640
N1538       N  0.49332494  0.75255272  0.06469713    -0.38640
N1539       N  0.61837233  0.80716327  0.17398535    -0.38090
N1540       N  0.55871771  0.68878185  0.02166388    -0.38090
C1541       C  0.61725666  0.93409935  0.26118577    -0.04760
C1542       C  0.61065393  0.93094833  0.22586297    -0.01870
C1543       C  0.58828814  0.90627716  0.21338027     0.03120
C1544       C  0.56977823  0.88609149  0.23585645    -0.04760
C1545       C  0.57379693  0.89170234  0.27125487    -0.01860
C1546       C  0.59790167  0.91467021  0.28369368     0.03110
C1547       C  0.62532573  0.95431359  0.20201295     0.37760
C1548       C  0.55224320  0.87489060  0.29544563     0.37750
C1549       C  0.60273493  0.91796679  0.31988432     0.36180
C1550       C  0.58520627  0.90108661  0.17724596     0.36180
N1551       N  0.60645886  0.92059537  0.34876740    -0.38640
N1552       N  0.58291392  0.89675836  0.14842411    -0.38640
N1553       N  0.53509265  0.86189509  0.31504500    -0.38090
N1554       N  0.63671955  0.97303954  0.18288849    -0.38090
C1555       C  0.42974566  0.88430090  0.23919511    -0.04760
C1556       C  0.42236532  0.91430483  0.22183808    -0.01870
C1557       C  0.40054150  0.93857183  0.23624149     0.03120
C1558       C  0.38426391  0.93280718  0.26787701    -0.04760
C1559       C  0.39159188  0.90279357  0.28523332    -0.01860
C1560       C  0.41424226  0.87892715  0.27126301     0.03110
C1561       C  0.43829332  0.92099372  0.18955353     0.37760
C1562       C  0.37512556  0.89586865  0.31718590     0.37750
C1563       C  0.42064863  0.84842649  0.29014218     0.36180
C1564       C  0.39606938  0.97025616  0.21869416     0.36180
N1565       N  0.42505422  0.82458588  0.30621267    -0.38640
N1566       N  0.39255829  0.99549618  0.20469904    -0.38640
N1567       N  0.36200371  0.89034670  0.34267676    -0.38090
N1568       N  0.45092920  0.92628081  0.16376733    -0.38090
C1569       C  0.57054629  0.73017623  0.25957908    -0.04760
C1570       C  0.56029258  0.69804005  0.26992352    -0.01870
C1571       C  0.57872558  0.68105298  0.29470059     0.03120
C1572       C  0.60829529  0.69544115  0.30757221    -0.04760
C1573       C  0.61936492  0.72694607  0.29609575    -0.01860
C1574       C  0.60002715  0.74465004  0.27247393     0.03110
C1575       C  0.52956390  0.68342351  0.25691324     0.37760
C1576       C  0.65039738  0.74120994  0.30865630     0.37750
C1577       C  0.60994800  0.77802942  0.26201546     0.36180
C1578       C  0.56634335  0.64966739  0.30835838     0.36180
N1579       N  0.61788840  0.80469369  0.25390984    -0.38640
N1580       N  0.55622726  0.62490734  0.31956247    -0.38640
N1581       N  0.67504756  0.75281876  0.31862593    -0.38090
N1582       N  0.50508071  0.67157131  0.24680996    -0.38090
C1583       C  0.43903301  0.73857032  0.27960885    -0.04760
C1584       C  0.45364056  0.72224924  0.30759971    -0.01870
C1585       C  0.43464588  0.69933884  0.32636056     0.03120
C1586       C  0.40066331  0.69443351  0.31814129    -0.04760
C1587       C  0.38522617  0.71389027  0.29237777    -0.01860
C1588       C  0.40475608  0.73525461  0.27247100     0.03110
C1589       C  0.48795353  0.72939483  0.31739925     0.37760
C1590       C  0.34919781  0.71253623  0.28678524     0.37750
C1591       C  0.38983520  0.75360511  0.24448910     0.36180
C1592       C  0.45021307  0.68024838  0.35338756     0.36180
N1593       N  0.37812447  0.76826744  0.22213432    -0.38640
N1594       N  0.46263450  0.66499289  0.37492993    -0.38640
N1595       N  0.32047460  0.71157084  0.28251014    -0.38090
N1596       N  0.51505870  0.73537295  0.32591722    -0.38090
C1597       C  0.76357074  0.43666410  0.11494272    -0.04760
C1598       C  0.77977540  0.40550728  0.11002495    -0.01870
C1599       C  0.76474836  0.38010746  0.08994248     0.03120
C1600       C  0.73380973  0.38566171  0.07256257    -0.04760
C1601       C  0.71798392  0.41702204  0.07664054    -0.01860
C1602       C  0.73242332  0.44213412  0.09753679     0.03110
C1603       C  0.81219692  0.39921019  0.12551171     0.37760
C1604       C  0.68731149  0.42411713  0.05813703     0.37750
C1605       C  0.71515246  0.47414657  0.09984068     0.36180
C1606       C  0.78123162  0.34768997  0.08844691     0.36180
N1607       N  0.70115652  0.49954733  0.10161922    -0.38640
N1608       N  0.79528443  0.32227255  0.08834761    -0.38640
N1609       N  0.66289290  0.42978114  0.04331029    -0.38090
N1610       N  0.83833313  0.39415810  0.13727198    -0.38090
C1611       C  0.72821405  0.62110887  0.07835449    -0.04760
C1612       C  0.74054935  0.58975963  0.06734740    -0.01870
C1613       C  0.75827796  0.56844623  0.08985321     0.03120
C1614       C  0.76174204  0.57716689  0.12436493    -0.04760
C1615       C  0.74695490  0.60750349  0.13580068    -0.01860
C1616       C  0.72996518  0.62901245  0.11297241     0.03110
C1617       C  0.73270652  0.57826482  0.03356108     0.37760
C1618       C  0.74951687  0.61687394  0.17112155     0.37750
C1619       C  0.71109192  0.65750010  0.12547480     0.36180
C1620       C  0.77193307  0.53701169  0.07754332     0.36180
N1621       N  0.69510463  0.67964870  0.13544394    -0.38640
N1622       N  0.78294921  0.51203793  0.06758160    -0.38640
N1623       N  0.75167501  0.62426914  0.19930887    -0.38090
N1624       N  0.72548524  0.56837195  0.00707753    -0.38090
C1625       C  0.88139819  0.57485772  0.23579190    -0.04760
C1626       C  0.87886063  0.58899258  0.26869565    -0.01870
C1627       C  0.90373209  0.61066719  0.28201977     0.03120
C1628       C  0.93157590  0.62054707  0.26242369    -0.04760
C1629       C  0.93175108  0.60987233  0.22767436    -0.01860
C1630       C  0.90780418  0.58645266  0.21512035     0.03110
C1631       C  0.84915048  0.58385831  0.28873272     0.37760
C1632       C  0.95568534  0.62346263  0.20369502     0.37750
C1633       C  0.91075764  0.57416562  0.18076157     0.36180
C1634       C  0.89878343  0.62446147  0.31547795     0.36180
N1635       N  0.91315352  0.56444555  0.15331827    -0.38640
N1636       N  0.89361334  0.63539590  0.34199981    -0.38640
N1637       N  0.97445262  0.63433106  0.18427247    -0.38090
N1638       N  0.82587672  0.58176394  0.30587840    -0.38090
C1639       C  0.92478124  0.38310606  0.26734798    -0.04760
C1640       C  0.93180826  0.41781338  0.26869037    -0.01870
C1641       C  0.90974650  0.44141955  0.25340562     0.03120
C1642       C  0.88025808  0.43080336  0.23663027    -0.04760
C1643       C  0.87267533  0.39629919  0.23633018    -0.01860
C1644       C  0.89486089  0.37262155  0.25110069     0.03110
C1645       C  0.96229079  0.42934103  0.28489622     0.37760
C1646       C  0.84161824  0.38500081  0.22126831     0.37750
C1647       C  0.88644309  0.33728189  0.25003824     0.36180
C1648       C  0.91703110  0.47688657  0.25576801     0.36180
N1649       N  0.87988950  0.30908813  0.24911509    -0.38640
N1650       N  0.92301469  0.50513415  0.25788304    -0.38640
N1651       N  0.81689141  0.37546490  0.20948490    -0.38090
N1652       N  0.98661012  0.43851673  0.29786292    -0.38090
C1653       C  0.72700590  0.43319516  0.26487819    -0.04760
C1654       C  0.71119153  0.44367795  0.29506394    -0.01870
C1655       C  0.69353803  0.42080557  0.31471342     0.03120
C1656       C  0.69095756  0.38755381  0.30393132    -0.04760
C1657       C  0.70468886  0.37714336  0.27285920    -0.01860
C1658       C  0.72244503  0.40021688  0.25294502     0.03110
C1659       C  0.71004939  0.47836369  0.30519596     0.37760
C1660       C  0.70068741  0.34278728  0.26173132     0.37750
C1661       C  0.73517063  0.39020814  0.22012725     0.36180
C1662       C  0.67685508  0.43177870  0.34559723     0.36180
N1663       N  0.74456309  0.38229566  0.19362437    -0.38640
N1664       N  0.66351403  0.44052328  0.37004853    -0.38640
N1665       N  0.69736536  0.31534627  0.25302167    -0.38090
N1666       N  0.70654055  0.50518026  0.31544056    -0.38090
C1667       C  0.72899181  0.56428231  0.27834322    -0.04760
C1668       C  0.69552045  0.57193717  0.26898342    -0.01870
C1669       C  0.67352109  0.58504839  0.29314956     0.03120
C1670       C  0.68657559  0.60087452  0.32230624    -0.04760
C1671       C  0.72045166  0.59390987  0.33139691    -0.01860
C1672       C  0.73942519  0.57170546  0.31161382     0.03110
C1673       C  0.68307889  0.56643656  0.23492188     0.37760
C1674       C  0.73710517  0.60940005  0.35988738     0.37750
C1675       C  0.76530942  0.55187266  0.32803403     0.36180
C1676       C  0.63757539  0.58174262  0.28794551     0.36180
N1677       N  0.78479271  0.53512734  0.34178535    -0.38640
N1678       N  0.60903654  0.57875105  0.28351138    -0.38640
N1679       N  0.75115684  0.62144228  0.38238714    -0.38090
N1680       N  0.67313207  0.56235013  0.20775818    -0.38090
C1681       C  0.42886187  0.23337495  0.11577815    -0.04760
C1682       C  0.44104440  0.25158098  0.08749903    -0.01870
C1683       C  0.41890334  0.27025500  0.06638353     0.03120
C1684       C  0.38401675  0.27053429  0.07264949    -0.04760
C1685       C  0.37190069  0.25225406  0.10078754    -0.01860
C1686       C  0.39401515  0.23380828  0.12198437     0.03110
C1687       C  0.47635808  0.24965179  0.07896556     0.37760
C1688       C  0.33636740  0.25269962  0.10839215     0.37750
C1689       C  0.38055805  0.21495886  0.15003248     0.36180
C1690       C  0.43191888  0.28840974  0.03750073     0.36180
N1691       N  0.36894035  0.19961696  0.17183005    -0.38640
N1692       N  0.44223905  0.30283220  0.01437122    -0.38640
N1693       N  0.30815294  0.25292159  0.11519182    -0.38090
N1694       N  0.50434470  0.24770305  0.07139392    -0.38090
C1695       C  0.43088102  0.11582890  0.23862490    -0.04760
C1696       C  0.40201856  0.10861675  0.21957162    -0.01870
C1697       C  0.37613842  0.08836553  0.23321494     0.03120
C1698       C  0.37978131  0.07237820  0.26552424    -0.04760
C1699       C  0.40972698  0.07873415  0.28390043    -0.01860
C1700       C  0.43470696  0.10037509  0.27072422     0.03110
C1701       C  0.39891479  0.12191027  0.18557754     0.37760
C1702       C  0.41561516  0.06285582  0.31636690     0.37750
C1703       C  0.46538757  0.10551636  0.28984899     0.36180
C1704       C  0.34548016  0.08517156  0.21362491     0.36180
N1705       N  0.48987178  0.10951579  0.30503824    -0.38640
N1706       N  0.32111232  0.08285336  0.19787116    -0.38640
N1707       N  0.42053660  0.05028057  0.34227546    -0.38090
N1708       N  0.39671733  0.13178911  0.15816398    -0.38090
C1709       C  0.61714965  0.07190133  0.26511689    -0.04760
C1710       C  0.58503283  0.06083656  0.25467805    -0.01870
C1711       C  0.56271273  0.08270915  0.23731811     0.03120
C1712       C  0.57244809  0.11570544  0.22899448    -0.04760
C1713       C  0.60501210  0.12635895  0.23818688    -0.01860
C1714       C  0.62701240  0.10481697  0.25649631     0.03110
C1715       C  0.57486223  0.02672587  0.26178074     0.37760
C1716       C  0.61592986  0.15952770  0.22832560     0.37750
C1717       C  0.66003182  0.11638878  0.26631101     0.36180
C1718       C  0.52943023  0.07131313  0.22807675     0.36180
N1719       N  0.68635908  0.12552134  0.27441530    -0.38640
N1720       N  0.50290192  0.06225582  0.22056643    -0.38640
N1721       N  0.62454802  0.18597039  0.22017121    -0.38090
N1722       N  0.56655498  0.99954930  0.26736990    -0.38090
C1723       C  0.56802069  0.24008425  0.12216442    -0.04760
C1724       C  0.59183974  0.21826142  0.10760300    -0.01870
C1725       C  0.61623459  0.23052941  0.08470412     0.03120
C1726       C  0.61841748  0.26548274  0.07696019    -0.04760
C1727       C  0.59422393  0.28721801  0.09136144    -0.01860
C1728       C  0.56903190  0.27463230  0.11321506     0.03110
C1729       C  0.59198109  0.18304227  0.11681744     0.37760
C1730       C  0.59515024  0.32283357  0.08411655     0.37750
C1731       C  0.54321298  0.29747051  0.12527030     0.36180
C1732       C  0.63817571  0.20624676  0.06848938     0.36180
N1733       N  0.52257031  0.31572193  0.13462276    -0.38640
N1734       N  0.65541511  0.18649951  0.05583962    -0.38640
N1735       N  0.59578648  0.35124218  0.07834327    -0.38090
N1736       N  0.59218933  0.15498704  0.12418799    -0.38090
C1737       C  0.43374394  0.26606085  0.27646705    -0.04760
C1738       C  0.44903302  0.28561923  0.30192576    -0.01870
C1739       C  0.43035334  0.31036477  0.31850395     0.03120
C1740       C  0.39556107  0.31162299  0.31371573    -0.04760
C1741       C  0.37943175  0.28777592  0.29290559    -0.01860
C1742       C  0.39873107  0.26578469  0.27329826     0.03110
C1743       C  0.48180369  0.27696118  0.31516000     0.37760
C1744       C  0.34316593  0.28415312  0.29351847     0.37750
C1745       C  0.38256562  0.23956020  0.25412906     0.36180
C1746       C  0.44652419  0.33325199  0.34181368     0.36180
N1747       N  0.36921873  0.21793943  0.24023844    -0.38640
N1748       N  0.45941608  0.35163091  0.36025272    -0.38640
N1749       N  0.31433077  0.28081505  0.29409371    -0.38090
N1750       N  0.50678632  0.26931944  0.32797455    -0.38090
C1751       C  0.56079339  0.27130622  0.27534133    -0.04760
C1752       C  0.55178042  0.30590190  0.27895946    -0.01870
C1753       C  0.56872974  0.32606290  0.30232907     0.03120
C1754       C  0.59714218  0.31346534  0.31889469    -0.04760
C1755       C  0.60810263  0.28030983  0.31294322    -0.01860
C1756       C  0.58825477  0.25849194  0.29403189     0.03110
C1757       C  0.52451121  0.32125977  0.25995282     0.37760
C1758       C  0.64168319  0.26957280  0.32258763     0.37750
C1759       C  0.59659054  0.22308829  0.29454214     0.36180
C1760       C  0.55798943  0.36040497  0.30825806     0.36180
N1761       N  0.60315581  0.19489020  0.29629428    -0.38640
N1762       N  0.54945746  0.38774325  0.31296406    -0.38640
N1763       N  0.66866971  0.26095498  0.32922477    -0.38090
N1764       N  0.50291683  0.33379193  0.24491555    -0.38090
C1765       C  0.88461148  0.76498981  0.56606948    -0.04760
C1766       C  0.89914258  0.73214911  0.56309919    -0.01870
C1767       C  0.92074528  0.71869632  0.58843017     0.03120
C1768       C  0.93039753  0.73804361  0.61656977    -0.04760
C1769       C  0.91790492  0.77170208  0.61833797    -0.01860
C1770       C  0.89444504  0.78436851  0.59429648     0.03110
C1771       C  0.89339460  0.71178682  0.53334661     0.37760
C1772       C  0.92927768  0.79432545  0.64462836     0.37750
C1773       C  0.88026565  0.81754947  0.59927095     0.36180
C1774       C  0.93468085  0.68529073  0.58423416     0.36180
N1775       N  0.86895199  0.84396254  0.60349136    -0.38640
N1776       N  0.94582952  0.65869916  0.58079254    -0.38640
N1777       N  0.93829220  0.81284693  0.66517025    -0.38090
N1778       N  0.88940494  0.69505422  0.50985588    -0.38090
C1779       C  0.76342891  0.88245443  0.57452499    -0.04760
C1780       C  0.73035666  0.88126944  0.58900492    -0.01870
C1781       C  0.71926455  0.90581962  0.61246518     0.03120
C1782       C  0.74022525  0.93253685  0.62174109    -0.04760
C1783       C  0.77254266  0.93461728  0.60678697    -0.01860
C1784       C  0.78418356  0.90977311  0.58384375     0.03110
C1785       C  0.70666178  0.85524891  0.57988754     0.37760
C1786       C  0.79367696  0.96325820  0.61405848     0.37750
C1787       C  0.81780232  0.91275032  0.57013012     0.36180
C1788       C  0.68628591  0.90298612  0.62787291     0.36180
N1789       N  0.84466029  0.91532647  0.55929734    -0.38640
N1790       N  0.66002533  0.90067826  0.64015669    -0.38640
N1791       N  0.81043731  0.98617759  0.61973045    -0.38090
N1792       N  0.68750158  0.83467922  0.57286609    -0.38090
C1793       C  0.76185759  0.88441238  0.43135259    -0.04760
C1794       C  0.73885024  0.87484053  0.40567549    -0.01870
C1795       C  0.72367738  0.89912261  0.38399878     0.03120
C1796       C  0.73068021  0.93358176  0.38789378    -0.04760
C1797       C  0.75282509  0.94312456  0.41437103    -0.01860
C1798       C  0.76853436  0.91883309  0.43546898     0.03110
C1799       C  0.73124425  0.83973802  0.40080765     0.37760
C1800       C  0.75833371  0.97832215  0.42117735     0.37750
C1801       C  0.79089241  0.92942126  0.46230150     0.36180
C1802       C  0.70162399  0.88845698  0.35696066     0.36180
N1803       N  0.80877420  0.93781715  0.48369396    -0.38640
N1804       N  0.68401554  0.87997617  0.33536600    -0.38640
N1805       N  0.76252985  0.00630801  0.42728702    -0.38090
N1806       N  0.72488041  0.81186485  0.39627433    -0.38090
C1807       C  0.87891226  0.76366104  0.42784264    -0.04760
C1808       C  0.90286326  0.78514387  0.41292294    -0.01870
C1809       C  0.92824074  0.77210391  0.39143117     0.03120
C1810       C  0.93070896  0.73713609  0.38476421    -0.04760
C1811       C  0.90958986  0.71545234  0.40296276    -0.01860
C1812       C  0.88270760  0.72840628  0.42250858     0.03110
C1813       C  0.90131991  0.82094553  0.41901108     0.37760
C1814       C  0.91674199  0.67983858  0.40370759     0.37750
C1815       C  0.85927368  0.70461957  0.43696477     0.36180
C1816       C  0.95339743  0.79483854  0.37823106     0.36180
N1817       N  0.84064757  0.68524713  0.44789130    -0.38640
N1818       N  0.97352397  0.81313012  0.36816016    -0.38640
N1819       N  0.92306465  0.65159618  0.40571933    -0.38090
N1820       N  0.90029331  0.84949137  0.42396106    -0.38090
C1821       C  0.71936413  0.73513103  0.43927436    -0.04760
C1822       C  0.72991515  0.72379978  0.40746639    -0.01870
C1823       C  0.70973398  0.70150326  0.38946068     0.03120
C1824       C  0.67982689  0.68903885  0.40425274    -0.04760
C1825       C  0.66936705  0.70035196  0.43618300    -0.01860
C1826       C  0.68895988  0.72385659  0.45359524     0.03110
C1827       C  0.76144714  0.73537214  0.39323026     0.37760
C1828       C  0.63854002  0.68781568  0.45091311     0.37750
C1829       C  0.67810172  0.73592786  0.48641000     0.36180
C1830       C  0.71914652  0.69270874  0.35510337     0.36180
N1831       N  0.66908261  0.74547153  0.51249545    -0.38640
N1832       N  0.72673712  0.68606983  0.32767138    -0.38640
N1833       N  0.61398024  0.67772182  0.46267183    -0.38090
N1834       N  0.78658352  0.74461849  0.38199436    -0.38090
C1835       C  0.73687309  0.72478476  0.56689774    -0.04760
C1836       C  0.72549911  0.69409382  0.55362168    -0.01870
C1837       C  0.70080848  0.67599743  0.57091653     0.03120
C1838       C  0.68859447  0.68797236  0.60205933    -0.04760
C1839       C  0.70156586  0.71793728  0.61616315    -0.01860
C1840       C  0.72534438  0.73652886  0.59820242     0.03110
C1841       C  0.73823903  0.68162436  0.52162366     0.37760
C1842       C  0.69117043  0.72950824  0.64937820     0.37750
C1843       C  0.73807011  0.76779669  0.61178119     0.36180
C1844       C  0.68722637  0.64562408  0.55623830     0.36180
N1845       N  0.74834789  0.79266565  0.62253329    -0.38640
N1846       N  0.67633496  0.62144255  0.54455021    -0.38640
N1847       N  0.68300197  0.73879946  0.67584142    -0.38090
N1848       N  0.74821733  0.67118225  0.49624844    -0.38090
C1849       C  0.76105626  0.12282199  0.42857039    -0.04760
C1850       C  0.72599875  0.11756085  0.42310591    -0.01870
C1851       C  0.71445112  0.09417038  0.39879926     0.03120
C1852       C  0.73735099  0.07387040  0.38079325    -0.04760
C1853       C  0.77225773  0.07753568  0.38787248    -0.01860
C1854       C  0.78393466  0.10234404  0.41060623     0.03110
C1855       C  0.70109572  0.13479493  0.44353963     0.37760
C1856       C  0.79658164  0.05434335  0.37363059     0.37750
C1857       C  0.81981391  0.10679702  0.41504199     0.36180
C1858       C  0.67873662  0.09151724  0.39208277     0.36180
N1859       N  0.84843709  0.11030551  0.41849509    -0.38640
N1860       N  0.65025612  0.08948962  0.38671590    -0.38640
N1861       N  0.81612639  0.03555776  0.36306668    -0.38090
N1862       N  0.68091157  0.14806659  0.45985009    -0.38090
C1863       C  0.73753703  0.07411692  0.62077707    -0.04760
C1864       C  0.76903315  0.09078760  0.62535374    -0.01870
C1865       C  0.78191639  0.11320543  0.60062067     0.03120
C1866       C  0.76546686  0.11749185  0.56934205    -0.04760
C1867       C  0.73593145  0.09820239  0.56353315    -0.01860
C1868       C  0.72130566  0.07824262  0.58939448     0.03110
C1869       C  0.78979520  0.08399238  0.65470700     0.37760
C1870       C  0.72224067  0.09553528  0.52980458     0.37750
C1871       C  0.69083944  0.05966021  0.58247511     0.36180
C1872       C  0.81256991  0.13149018  0.60749647     0.36180
N1873       N  0.66658525  0.04479426  0.57691802    -0.38640
N1874       N  0.83712263  0.14586549  0.61304404    -0.38640
N1875       N  0.71124260  0.09166984  0.50308436    -0.38090
N1876       N  0.80747594  0.07836242  0.67723562    -0.38090
C1877       C  0.88041996  0.23726777  0.57337475    -0.04760
C1878       C  0.91217000  0.24941891  0.56315102    -0.01870
C1879       C  0.93444701  0.26409987  0.58684180     0.03120
C1880       C  0.92499747  0.26793203  0.62107612    -0.04760
C1881       C  0.89264777  0.25717316  0.63103685    -0.01860
C1882       C  0.87066142  0.24184965  0.60746274     0.03110
C1883       C  0.92132646  0.24901040  0.52777714     0.37760
C1884       C  0.88134135  0.26332467  0.66531733     0.37750
C1885       C  0.83756512  0.23130175  0.61820439     0.36180
C1886       C  0.96741322  0.27483793  0.57585524     0.36180
N1887       N  0.81113807  0.22293235  0.62679620    -0.38640
N1888       N  0.99364372  0.28335320  0.56682015    -0.38640
N1889       N  0.87230091  0.26842801  0.69263638    -0.38090
N1890       N  0.92921504  0.24976022  0.49968208    -0.38090
C1891       C  0.88103163  0.23530291  0.42777355    -0.04760
C1892       C  0.91416179  0.22287802  0.42732877    -0.01870
C1893       C  0.93936372  0.23914280  0.40797927     0.03120
C1894       C  0.93157778  0.26692020  0.38658546    -0.04760
C1895       C  0.89792072  0.27817280  0.38570450    -0.01860
C1896       C  0.87295782  0.26244034  0.40590232     0.03110
C1897       C  0.92262589  0.19374602  0.44761787     0.37760
C1898       C  0.88858333  0.30533025  0.36317449     0.37750
C1899       C  0.83826983  0.27259802  0.40188121     0.36180
C1900       C  0.97383448  0.22815587  0.41197800     0.36180
N1901       N  0.81072278  0.28060901  0.39723232    -0.38640
N1902       N  0.00117804  0.21923015  0.41611205    -0.38640
N1903       N  0.88122298  0.32705875  0.34523143    -0.38090
N1904       N  0.92928009  0.17047805  0.46378022    -0.38090
C1905       C  0.72699725  0.26880969  0.56993263    -0.04760
C1906       C  0.71673679  0.25477434  0.60106889    -0.01870
C1907       C  0.69677837  0.27379240  0.62335881     0.03120
C1908       C  0.68511884  0.30580958  0.61343680    -0.04760
C1909       C  0.69331441  0.31867736  0.58148502    -0.01860
C1910       C  0.71560973  0.30120683  0.56071709     0.03110
C1911       C  0.72788766  0.22152724  0.61098900     0.37760
C1912       C  0.67916032  0.35046660  0.57012573     0.37750
C1913       C  0.72728953  0.31801929  0.53065280     0.36180
C1914       C  0.68961756  0.26101781  0.65692827     0.36180
N1915       N  0.73628801  0.33374158  0.50795605    -0.38640
N1916       N  0.68389742  0.25084425  0.68370373    -0.38640
N1917       N  0.66803005  0.37576184  0.56111537    -0.38090
N1918       N  0.73657691  0.19493595  0.61882598    -0.38090
C1919       C  0.68049873  0.31786926  0.40660156    -0.04760
C1920       C  0.67576293  0.28286485  0.40986629    -0.01870
C1921       C  0.70214139  0.26268209  0.42120575     0.03120
C1922       C  0.73106464  0.27704293  0.43527824    -0.04760
C1923       C  0.73536011  0.31203742  0.43396136    -0.01860
C1924       C  0.70915086  0.33245202  0.42179604     0.03110
C1925       C  0.64393602  0.26671714  0.40299902     0.37760
C1926       C  0.76703938  0.32712700  0.44353940     0.37750
C1927       C  0.71150059  0.36859572  0.42499677     0.36180
C1928       C  0.70106250  0.22705110  0.41447052     0.36180
N1929       N  0.71341195  0.39738920  0.42756217    -0.38640
N1930       N  0.70009116  0.19905673  0.40724422    -0.38640
N1931       N  0.79229540  0.33928675  0.45101453    -0.38090
N1932       N  0.61875440  0.25309035  0.39835603    -0.38090
C1933       C  0.06958394  0.73199269  0.38846070    -0.04760
C1934       C  0.05884416  0.74449000  0.42020309    -0.01870
C1935       C  0.08123676  0.76228783  0.44154293     0.03120
C1936       C  0.11483770  0.76795830  0.43163667    -0.04760
C1937       C  0.12558593  0.75559623  0.39990240    -0.01860
C1938       C  0.10293499  0.73860959  0.37814884     0.03110
C1939       C  0.02438370  0.73936759  0.43077482     0.37760
C1940       C  0.16025660  0.76015394  0.38974513     0.37750
C1941       C  0.11330333  0.73025841  0.34410578     0.36180
C1942       C  0.06979687  0.77455960  0.47405599     0.36180
N1943       N  0.12142926  0.72488930  0.31655839    -0.38640
N1944       N  0.06072332  0.78448778  0.49997607    -0.38640
N1945       N  0.18796754  0.76374135  0.38178120    -0.38090
N1946       N  0.99689306  0.73526581  0.43922358    -0.38090
C1947       C  0.26254030  0.92893334  0.62088749    -0.04760
C1948       C  0.22721716  0.92272529  0.61660290    -0.01870
C1949       C  0.21508507  0.90022828  0.59156441     0.03120
C1950       C  0.23736717  0.87965008  0.57299853    -0.04760
C1951       C  0.27256917  0.88401269  0.57925717    -0.01860
C1952       C  0.28464794  0.91009253  0.60044120     0.03110
C1953       C  0.20223560  0.93921358  0.63763641     0.37760
C1954       C  0.29733750  0.86137391  0.56487895     0.37750
C1955       C  0.31981153  0.91895957  0.59872111     0.36180
C1956       C  0.17932875  0.89935694  0.58451114     0.36180
N1957       N  0.34768252  0.92641925  0.59582087    -0.38640
N1958       N  0.15082296  0.89919453  0.57883162    -0.38640
N1959       N  0.31739959  0.84340091  0.55383505    -0.38090
N1960       N  0.18195133  0.95201062  0.65419225    -0.38090
C1961       C  0.11875311  0.76247470  0.57283985    -0.04760
C1962       C  0.11285744  0.78063519  0.60264977    -0.01870
C1963       C  0.08797359  0.77021217  0.62602293     0.03120
C1964       C  0.07064523  0.73904915  0.62187115    -0.04760
C1965       C  0.07638762  0.72126974  0.59120244    -0.01860
C1966       C  0.09984064  0.73311047  0.56694978     0.03110
C1967       C  0.13372129  0.80932829  0.61024472     0.37760
C1968       C  0.05713287  0.69156114  0.58319979     0.37750
C1969       C  0.10378670  0.71535208  0.53517517     0.36180
C1970       C  0.07944328  0.79328740  0.65303150     0.36180
N1971       N  0.10664998  0.70122248  0.50980763    -0.38640
N1972       N  0.07270334  0.81224793  0.67410735    -0.38640
N1973       N  0.04165363  0.66802644  0.57647160    -0.38090
N1974       N  0.15075463  0.83177217  0.61684030    -0.38090
C1975       C  0.26308164  0.92730631  0.38243620    -0.04760
C1976       C  0.23353702  0.90819346  0.37552101    -0.01870
C1977       C  0.22062456  0.88506760  0.39954960     0.03120
C1978       C  0.23700045  0.87998256  0.43065985    -0.04760
C1979       C  0.26701053  0.89783026  0.43706199    -0.01860
C1980       C  0.28029920  0.92064070  0.41306754     0.03110
C1981       C  0.21689598  0.91075395  0.34298704     0.37760
C1982       C  0.28403656  0.89373108  0.46912449     0.37750
C1983       C  0.31189711  0.93706035  0.42037021     0.36180
C1984       C  0.19089606  0.86563941  0.39184322     0.36180
N1985       N  0.33719985  0.94993871  0.42628077    -0.38640
N1986       N  0.16721362  0.85007944  0.38575592    -0.38640
N1987       N  0.29813119  0.89132574  0.49454052    -0.38090
N1988       N  0.20348759  0.91248880  0.31709072    -0.38090
C1989       C  0.27427434  0.72624766  0.56421737    -0.04760
C1990       C  0.27957598  0.69181950  0.55656091    -0.01870
C1991       C  0.30453556  0.67337698  0.57344248     0.03120
C1992       C  0.32166291  0.68768116  0.60078092    -0.04760
C1993       C  0.31451843  0.72110691  0.61047340    -0.01860
C1994       C  0.29169090  0.74058586  0.59170865     0.03110
C1995       C  0.25747211  0.67369387  0.53415829     0.37760
C1996       C  0.32771262  0.73459627  0.64183201     0.37750
C1997       C  0.28364474  0.77421885  0.60321358     0.36180
C1998       C  0.31115515  0.63875504  0.56412860     0.36180
N1999       N  0.27709140  0.80079458  0.61287562    -0.38640
N2000       N  0.31627812  0.61116276  0.55677160    -0.38640
N2001       N  0.33731009  0.74572664  0.66701415    -0.38090
N2002       N  0.23937746  0.65783982  0.51798572    -0.38090
C2003       C  0.26628372  0.72596903  0.43135510    -0.04760
C2004       C  0.26526974  0.69091872  0.43372112    -0.01870
C2005       C  0.29323499  0.67185427  0.42372656     0.03120
C2006       C  0.31849666  0.68642731  0.40321371    -0.04760
C2007       C  0.31716008  0.72185699  0.39749556    -0.01860
C2008       C  0.29224971  0.74142247  0.41312664     0.03110
C2009       C  0.23482106  0.67431075  0.44444982     0.37760
C2010       C  0.34044360  0.73931816  0.37548000     0.37750
C2011       C  0.29267793  0.77770399  0.40937110     0.36180
C2012       C  0.29637538  0.63772256  0.43598204     0.36180
N2013       N  0.29343493  0.80651901  0.40632983    -0.38640
N2014       N  0.29878577  0.61054762  0.44590882    -0.38640
N2015       N  0.35877134  0.75431189  0.35860951    -0.38090
N2016       N  0.20999702  0.66114998  0.45166416    -0.38090
loop_ 
_geom_bond_atom_site_label_1 
_geom_bond_atom_site_label_2 
_geom_bond_distance 
_geom_bond_site_symmetry_2 
_ccdc_geom_bond_type 
O1           C16   1.260       .  A
O1           Al9   1.888       .  S
C2           O12   1.273       .  A
C2            O3   1.251       .  A
C2         C1936   1.500       .  S
O3           Al5   1.875       .  S
O4            C6   1.258       .  A
O4           Al5   1.894       .  S
Al5          O13   1.883       .  S
Al5          O15   1.890       .  S
Al5          O14   1.798       .  S
C6           O19   1.255       .  A
C6         C2003   1.468       .  S
O7           C17   1.258       .  A
O7           Al9   1.882       .  S
O8           C21   1.274       .  A
O8          Al18   1.974       .  S
Al9          O22   1.880       .  S
Al9          O19   1.874       .  S
Al9          O14   1.791       .  S
O10          C17   1.275       .  A
O10         Al18   1.976       .  S
O11          C20   1.274       .  A
O11         Al18   1.966       .  S
O12         Al18   1.969       .  S
O13          C20   1.259       .  A
O14         Al18   1.785       .  S
O15          C16   1.257       .  A
C16        C1989   1.488       .  S
C17        C1978   1.505       .  S
C20        C1961   1.502       .  S
C21          O22   1.251       .  A
C21        C1950   1.533       .  S
O23          C38   1.259       .  A
O23         Al31   1.883       .  S
C24          O34   1.273       .  A
C24          O25   1.257       .  A
C24        C1891   1.512       .  S
O25         Al27   1.894       .  S
O26          C28   1.255       .  A
O26         Al27   1.886       .  S
Al27         O35   1.877       .  S
Al27         O37   1.896       .  S
Al27         O36   1.791       .  S
C28          O41   1.257       .  A
C28        C1922   1.472       .  S
O29          C39   1.258       .  A
O29         Al31   1.881       .  S
O30          C43   1.275       .  A
O30         Al40   1.969       .  S
Al31         O44   1.894       .  S
Al31         O41   1.884       .  S
Al31         O36   1.787       .  S
O32          C39   1.278       .  A
O32         Al40   1.978       .  S
O33          C42   1.277       .  A
O33         Al40   1.985       .  S
O34         Al40   1.966       .  S
O35          C42   1.255       .  A
O36         Al40   1.780       .  S
O37          C38   1.260       .  A
C38        C1905   1.476       .  S
C39        C1849   1.517       .  S
C42        C1877   1.503       .  S
C43          O44   1.255       .  A
C43        C1866   1.523       .  S
O45          C60   1.254       .  A
O45         Al53   1.875       .  S
C46          O56   1.278       .  A
C46          O47   1.257       .  A
C46        C1765   1.534       .  S
O47         Al49   1.897       .  S
O48          C50   1.256       .  A
O48         Al49   1.874       .  S
Al49         O57   1.876       .  S
Al49         O59   1.878       .  S
Al49         O58   1.783       .  S
C50          O63   1.258       .  A
C50        C1835   1.450       .  S
O51          C61   1.252       .  A
O51         Al53   1.870       .  S
O52          C65   1.276       .  A
O52         Al62   1.966       .  S
Al53         O66   1.909       .  S
Al53         O63   1.885       .  S
Al53         O58   1.782       .  S
O54          C61   1.276       .  A
O54         Al62   1.985       .  S
O55          C64   1.277       .  A
O55         Al62   1.982       .  S
O56         Al62   1.972       .  S
O57          C64   1.255       .  A
O58         Al62   1.781       .  S
O59          C60   1.253       .  A
C60        C1821   1.453       .  S
C61        C1779   1.529       .  S
C64        C1807   1.515       .  S
C65          O66   1.261       .  A
C65        C1793   1.512       .  S
O67          C82   1.264       .  A
O67         Al75   1.900       .  S
C68          O78   1.269       .  A
C68          O69   1.248       .  A
C68        C1712   1.500       .  S
O69         Al71   1.867       .  S
O70          C72   1.260       .  A
O70         Al71   1.894       .  S
Al71         O79   1.871       .  S
Al71         O81   1.879       .  S
Al71         O80   1.797       .  S
C72          O85   1.249       .  A
C72        C1751   1.484       .  S
O73          C83   1.259       .  A
O73         Al75   1.872       .  S
O74          C87   1.270       .  A
O74         Al84   1.974       .  S
Al75         O88   1.873       .  S
Al75         O85   1.860       .  S
Al75         O80   1.789       .  S
O76          C83   1.278       .  A
O76         Al84   1.970       .  S
O77          C86   1.277       .  A
O77         Al84   1.969       .  S
O78         Al84   1.965       .  S
O79          C86   1.258       .  A
O80         Al84   1.789       .  S
O81          C82   1.254       .  A
C82        C1737   1.460       .  S
C83        C1723   1.507       .  S
C86        C1695   1.505       .  S
C87          O88   1.247       .  A
C87        C1681   1.506       .  S
O89         C104   1.258       .  A
O89         Al97   1.900       .  S
C90         O100   1.276       .  A
C90          O91   1.251       .  A
C90        C1597   1.527       .  S
O91         Al93   1.877       .  S
O92          C94   1.259       .  A
O92         Al93   1.879       .  S
Al93        O101   1.875       .  S
Al93        O103   1.878       .  S
Al93        O102   1.782       .  S
C94         O107   1.264       .  A
C94        C1653   1.464       .  S
O95         C105   1.256       .  A
O95         Al97   1.878       .  S
O96         C109   1.274       .  A
O96        Al106   1.969       .  S
Al97        O110   1.902       .  S
Al97        O107   1.908       .  S
Al97        O102   1.784       .  S
O98         C105   1.276       .  A
O98        Al106   1.978       .  S
O99         C108   1.278       .  A
O99        Al106   1.977       .  S
O100       Al106   1.980       .  S
O101        C108   1.260       .  A
O102       Al106   1.776       .  S
O103        C104   1.254       .  A
C104       C1667   1.479       .  S
C105       C1642   1.499       .  S
C108       C1614   1.500       .  S
C109        O110   1.259       .  A
C109       C1625   1.529       .  S
O111        C126   1.256       .  A
O111       Al119   1.879       .  S
C112        O122   1.276       .  A
C112        O113   1.259       .  A
C112       C1555   1.511       .  S
O113       Al115   1.901       .  S
O114        C116   1.251       .  A
O114       Al115   1.865       .  S
Al115       O123   1.870       .  S
Al115       O125   1.880       .  S
Al115       O124   1.777       .  S
C116        O129   1.257       .  A
C116       C1583   1.450       .  S
O117        C127   1.258       .  A
O117       Al119   1.878       .  S
O118        C131   1.276       .  A
O118       Al128   1.968       .  S
Al119       O132   1.900       .  S
Al119       O129   1.898       .  S
Al119       O124   1.785       .  S
O120        C127   1.278       .  A
O120       Al128   1.986       .  S
O121        C130   1.277       .  A
O121       Al128   1.992       .  S
O122       Al128   1.959       .  S
O123        C130   1.253       .  A
O124       Al128   1.771       .  S
O125        C126   1.257       .  A
C126       C1569   1.449       .  S
C127       C1513   1.504       .  S
C130       C1544   1.513       .  S
C131        O132   1.258       .  A
C131       C1530   1.505       .  S
O133        C148   1.260       .  A
O133       Al141   1.886       .  S
C134        O144   1.276       .  A
C134        O135   1.256       .  A
C134       C1429   1.520       .  S
O135       Al137   1.898       .  S
O136        C138   1.255       .  A
O136       Al137   1.872       .  S
Al137       O145   1.867       .  S
Al137       O147   1.888       .  S
Al137       O146   1.784       .  S
C138        O151   1.255       .  A
C138       C1499   1.450       .  S
O139        C149   1.255       .  A
O139       Al141   1.870       .  S
O140        C153   1.275       .  A
O140       Al150   1.971       .  S
Al141       O154   1.885       .  S
Al141       O151   1.879       .  S
Al141       O146   1.782       .  S
O142        C149   1.276       .  A
O142       Al150   1.970       .  S
O143        C152   1.275       .  A
O143       Al150   1.972       .  S
O144       Al150   1.978       .  S
O145        C152   1.257       .  A
O146       Al150   1.778       .  S
O147        C148   1.257       .  A
C148       C1485   1.468       .  S
C149       C1446   1.514       .  S
C152       C1471   1.501       .  S
C153        O154   1.254       .  A
C153       C1457   1.512       .  S
O155        C170   1.265       .  A
O155       Al163   1.895       .  S
C156        O166   1.269       .  A
C156        O157   1.250       .  A
C156       C1387   1.508       .  S
O157       Al159   1.872       .  S
O158        C160   1.256       .  A
O158       Al159   1.895       .  S
Al159       O167   1.880       .  S
Al159       O169   1.870       .  S
Al159       O168   1.789       .  S
C160        O173   1.247       .  A
C160       C1401   1.461       .  S
O161        C171   1.264       .  A
O161       Al163   1.881       .  S
O162        C175   1.269       .  A
O162       Al172   1.975       .  S
Al163       O176   1.855       .  S
Al163       O173   1.874       .  S
Al163       O168   1.801       .  S
O164        C171   1.283       .  A
O164       Al172   1.978       .  S
O165        C174   1.277       .  A
O165       Al172   1.979       .  S
O166       Al172   1.964       .  S
O167        C174   1.255       .  A
O168       Al172   1.786       .  S
O169        C170   1.258       .  A
C170       C1415   1.482       .  S
C171       C1345   1.527       .  S
C174       C1376   1.507       .  S
C175        O176   1.243       .  A
C175       C1359   1.507       .  S
O177        C192   1.261       .  A
O177       Al185   1.905       .  S
C178        O188   1.276       .  A
C178        O179   1.255       .  A
C178       C1275   1.525       .  S
O179       Al181   1.891       .  S
O180        C182   1.259       .  A
O180       Al181   1.892       .  S
Al181       O189   1.883       .  S
Al181       O191   1.873       .  S
Al181       O190   1.784       .  S
C182        O195   1.254       .  A
C182       C1331   1.461       .  S
O183        C193   1.259       .  A
O183       Al185   1.890       .  S
O184        C197   1.279       .  A
O184       Al194   1.986       .  S
Al185       O198   1.878       .  S
Al185       O195   1.877       .  S
Al185       O190   1.790       .  S
O186        C193   1.272       .  A
O186       Al194   1.956       .  S
O187        C196   1.273       .  A
O187       Al194   1.965       .  S
O188       Al194   1.972       .  S
O189        C196   1.258       .  A
O190       Al194   1.784       .  S
O191        C192   1.257       .  A
C192       C1317   1.476       .  S
C193       C1261   1.496       .  S
C196       C1303   1.519       .  S
C197        O198   1.252       .  A
C197       C1289   1.539       .  S
O199        C214   1.253       .  A
O199       Al207   1.865       .  S
C200        O210   1.278       .  A
C200        O201   1.260       .  A
C200       C1177   1.520       .  S
O201       Al203   1.904       .  S
O202        C204   1.252       .  A
O202       Al203   1.865       .  S
Al203       O211   1.870       .  S
Al203       O213   1.888       .  S
Al203       O212   1.783       .  S
C204        O217   1.255       .  A
C204       C1233   1.453       .  S
O205        C215   1.255       .  A
O205       Al207   1.866       .  S
O206        C219   1.276       .  A
O206       Al216   1.971       .  S
Al207       O220   1.898       .  S
Al207       O217   1.885       .  S
Al207       O212   1.787       .  S
O208        C215   1.277       .  A
O208       Al216   1.989       .  S
O209        C218   1.275       .  A
O209       Al216   1.979       .  S
O210       Al216   1.972       .  S
O211        C218   1.252       .  A
O212       Al216   1.773       .  S
O213        C214   1.258       .  A
C214       C1250   1.443       .  S
C215       C1191   1.494       .  S
C218       C1219   1.529       .  S
C219        O220   1.256       .  A
C219       C1208   1.529       .  S
O221        C236   1.265       .  A
O221       Al229   1.905       .  S
C222        O232   1.278       .  A
C222        O223   1.251       .  A
C222       C1093   1.522       .  S
O223       Al225   1.865       .  S
O224        C226   1.260       .  A
O224       Al225   1.909       .  S
Al225       O233   1.887       .  S
Al225       O235   1.861       .  S
Al225       O234   1.784       .  S
C226        O239   1.249       .  A
C226       C1163   1.471       .  S
O227        C237   1.263       .  A
O227       Al229   1.889       .  S
O228        C241   1.278       .  A
O228       Al238   1.991       .  S
Al229       O242   1.870       .  S
Al229       O239   1.861       .  S
Al229       O234   1.787       .  S
O230        C237   1.275       .  A
O230       Al238   1.966       .  S
O231        C240   1.269       .  A
O231       Al238   1.953       .  S
O232       Al238   1.974       .  S
O233        C240   1.257       .  A
O234       Al238   1.779       .  S
O235        C236   1.255       .  A
C236       C1152   1.486       .  S
C237       C1135   1.507       .  S
C240       C1121   1.496       .  S
C241        O242   1.247       .  A
C241       C1107   1.534       .  S
O243        C258   1.257       .  A
O243       Al251   1.884       .  S
C244        O254   1.279       .  A
C244        O245   1.255       .  A
C244       C1040   1.530       .  S
O245       Al247   1.888       .  S
O246        C248   1.255       .  A
O246       Al247   1.873       .  S
Al247       O255   1.864       .  S
Al247       O257   1.873       .  S
Al247       O256   1.777       .  S
C248        O261   1.255       .  A
C248       C1065   1.444       .  S
O249        C259   1.256       .  A
O249       Al251   1.873       .  S
O250        C263   1.275       .  A
O250       Al260   1.969       .  S
Al251       O264   1.889       .  S
Al251       O261   1.880       .  S
Al251       O256   1.781       .  S
O252        C259   1.278       .  A
O252       Al260   1.986       .  S
O253        C262   1.276       .  A
O253       Al260   1.977       .  S
O254       Al260   1.978       .  S
O255        C262   1.252       .  A
O256       Al260   1.773       .  S
O257        C258   1.255       .  A
C258       C1082   1.449       .  S
C259       C1054   1.514       .  S
C262       C1026   1.508       .  S
C263        O264   1.255       .  A
C263       C1012   1.500       .  S
C265       C1166   1.487       .  S
C265        C266   1.401       .  A
C265        C270   1.405       .  A
C266        C267   1.391       .  A
C266        H271   1.083       .  S
C267       C1068   1.464       .  S
C267        C268   1.389       .  A
C268        C269   1.388       .  A
C268        H272   1.085       .  S
C269       C1404   1.464       .  S
C269        C270   1.396       .  A
C270        H273   1.083       .  S
C274       C1079   1.471       .  S
C274        C275   1.389       .  A
C274        C279   1.397       .  A
C275        C276   1.387       .  A
C275        H280   1.086       .  S
C276       C1740   1.458       .  S
C276        C277   1.393       .  A
C277        C278   1.400       .  A
C277        H281   1.084       .  S
C278       C1502   1.480       .  S
C278        C279   1.402       .  A
C279        H282   1.084       .  S
C283       C1908   1.470       .  S
C283        C284   1.389       .  A
C283        C288   1.389       .  A
C284        C285   1.386       .  A
C284        H289   1.085       .  S
C285       C1247   1.454       .  S
C285        C286   1.395       .  A
C286        C287   1.398       .  A
C286        H290   1.082       .  S
C287       C1149   1.483       .  S
C287        C288   1.409       .  A
C288        H291   1.083       .  S
C292       C1236   1.479       .  S
C292        C293   1.394       .  A
C292        C297   1.397       .  A
C293        C294   1.395       .  A
C293        H298   1.085       .  S
C294       C1838   1.471       .  S
C294        C295   1.395       .  A
C295        C296   1.396       .  A
C295        H299   1.084       .  S
C296       C1334   1.479       .  S
C296        C297   1.400       .  A
C297        H300   1.084       .  S
C301       C1320   1.500       .  S
C301        C302   1.410       .  A
C301        C306   1.408       .  A
C302        C303   1.399       .  A
C302        H307   1.075       .  S
C303       C1992   1.474       .  S
C303        C304   1.390       .  A
C304        C305   1.386       .  A
C304        H308   1.084       .  S
C305       C1418   1.471       .  S
C305        C306   1.396       .  A
C306        H309   1.082       .  S
C310       C1488   1.487       .  S
C310        C311   1.399       .  A
C310        C315   1.394       .  A
C311        C312   1.405       .  A
C311        H316   1.076       .  S
C312       C2006   1.503       .  S
C312        C313   1.399       .  A
C313        C314   1.398       .  A
C313        H317   1.083       .  S
C314       C1586   1.470       .  S
C314        C315   1.394       .  A
C315        H318   1.084       .  S
C319       C1824   1.467       .  S
C319        C320   1.402       .  A
C319        C324   1.392       .  A
C320        C321   1.406       .  A
C320        H325   1.078       .  S
C321       C1670   1.495       .  S
C321        C322   1.403       .  A
C322        C323   1.386       .  A
C322        H326   1.083       .  S
C323       C1572   1.460       .  S
C323        C324   1.387       .  A
C324        H327   1.085       .  S
C328       C1754   1.461       .  S
C328        C329   1.399       .  A
C328        C333   1.386       .  A
C329        C330   1.406       .  A
C329        H334   1.078       .  S
C330       C1919   1.493       .  S
C330        C331   1.406       .  A
C331        C332   1.388       .  A
C331        H335   1.082       .  S
C332       C1656   1.452       .  S
C332        C333   1.379       .  A
C333        H336   1.085       .  S
O337        C352   1.262       .  A
O337       Al345   1.901       .  S
C338        O348   1.276       .  A
C338        O339   1.247       .  A
C338       C1278   1.524       .  S
O339       Al341   1.863   1_565  S
O340        C342   1.261       .  A
O340       Al341   1.899   1_565  S
Al341       O349   1.884       .  S
Al341       O351   1.852       .  S
Al341       O350   1.796       .  S
C342        O355   1.247       .  A
C342        C995   1.463       .  S
O343        C353   1.260       .  A
O343       Al345   1.883   1_565  S
O344        C357   1.277       .  A
O344       Al354   1.990       .  S
Al345       O358   1.851       .  S
Al345       O355   1.850   1_545  S
Al345       O350   1.800       .  S
O346        C353   1.275       .  A
O346       Al354   1.964   1_565  S
O347        C356   1.275       .  A
O347       Al354   1.970       .  S
O348       Al354   1.987   1_565  S
O349        C356   1.258       .  A
O350       Al354   1.789       .  S
O351        C352   1.249       .  A
C352        C981   1.469       .  S
C353       C1782   1.507       .  S
C356       C1124   1.504       .  S
C357        O358   1.244       .  A
C357       C1863   1.521       .  S
C359        C984   1.460       .  S
C359        C360   1.394       .  A
C359        C364   1.385       .  A
C360        C361   1.402       .  A
C360        H365   1.081       .  S
C361        C967   1.490       .  S
C361        C362   1.408       .  A
C362        C363   1.396       .  A
C362        H366   1.083       .  S
C363        C953   1.465       .  S
C363        C364   1.387       .  A
C364        H367   1.086       .  S
O368        C383   1.258       .  A
O368       Al376   1.880   1_455  S
C369        O379   1.278       .  A
C369        O370   1.252       .  A
C369       C1205   1.534       .  S
O370       Al372   1.876       .  S
O371        C373   1.259       .  A
O371       Al372   1.898       .  S
Al372       O380   1.875   1_655  S
Al372       O382   1.877   1_655  S
Al372       O381   1.789       .  S
C373        O386   1.251       .  A
C373        C970   1.466       .  S
O374        C384   1.259       .  A
O374       Al376   1.889       .  S
O375        C388   1.277       .  A
O375       Al385   1.981   1_455  S
Al376       O389   1.885   1_655  S
Al376       O386   1.863       .  S
Al376       O381   1.784       .  S
O377        C384   1.276       .  A
O377       Al385   1.977       .  S
O378        C387   1.273       .  A
O378       Al385   1.970   1_455  S
O379       Al385   1.983       .  S
O380        C387   1.255       .  A
O381       Al385   1.773       .  S
O382        C383   1.256       .  A
C383        C939   1.449       .  S
C384       C1880   1.504       .  S
C387       C1348   1.500       .  S
C388        O389   1.252       .  A
C388       C1037   1.519       .  S
O390        C405   1.265       .  A
O390       Al398   1.900       .  S
C391        O401   1.277       .  A
C391        O392   1.246       .  A
C391       C1096   1.518       .  S
O392       Al394   1.855       .  S
O393        C395   1.262       .  A
O393       Al394   1.905       .  S
Al394       O402   1.880   1_545  S
Al394       O404   1.848   1_545  S
Al394       O403   1.787       .  S
C395        O408   1.247       .  A
C395        C914   1.463       .  S
O396        C406   1.257       .  A
O396       Al398   1.873   1_545  S
O397        C410   1.278       .  A
O397       Al407   1.995   1_565  S
Al398       O411   1.859       .  S
Al398       O408   1.847   1_565  S
Al398       O403   1.785   1_565  S
O399        C406   1.277       .  A
O399       Al407   1.973       .  S
O400        C409   1.276       .  A
O400       Al407   1.968   1_565  S
O401       Al407   1.987       .  S
O402        C409   1.259       .  A
O403       Al407   1.781       .  S
O404        C405   1.249       .  A
C405        C925   1.460       .  S
C406       C1051   1.513       .  S
C409       C1306   1.515       .  S
C410        O411   1.245       .  A
C410       C1947   1.536       .  S
C412        C900   1.486       .  S
C412        C413   1.399       .  A
C412        C417   1.407       .  A
C413        C414   1.392       .  A
C413        H418   1.082       .  S
C414        C911   1.455       .  S
C414        C415   1.384       .  A
C415        C416   1.388       .  A
C415        H419   1.086       .  S
C416        C942   1.472       .  S
C416        C417   1.398       .  A
C417        H420   1.083       .  S
O421        C436   1.252       .  A
O421       Al429   1.873   1_455  S
C422        O432   1.274       .  A
C422        O423   1.249       .  A
C422       C1768   1.526       .  S
O423       Al425   1.878       .  S
O424        C426   1.262       .  A
O424       Al425   1.899       .  S
Al425       O433   1.885   1_655  S
Al425       O435   1.888   1_655  S
Al425       O434   1.787       .  S
C426        O439   1.256       .  A
C426        C886   1.474       .  S
O427        C437   1.253       .  A
O427       Al429   1.856       .  S
O428        C441   1.275       .  A
O428       Al438   1.983   1_455  S
Al429       O442   1.868   1_655  S
Al429       O439   1.867       .  S
Al429       O434   1.791       .  S
O430        C437   1.278       .  A
O430       Al438   1.983       .  S
O431        C440   1.281       .  A
O431       Al438   1.981   1_455  S
O432       Al438   1.979       .  S
O433        C440   1.262       .  A
O434       Al438   1.775       .  S
O435        C436   1.255       .  A
C436        C869   1.452       .  S
C437       C1194   1.514       .  S
C440       C1964   1.531       .  S
C441        O442   1.250       .  A
C441       C1362   1.509       .  S
C443        C872   1.467       .  S
C443        C444   1.390       .  A
C443        C448   1.396       .  A
C444        C445   1.397       .  A
C444        H449   1.084       .  S
C445        C928   1.458       .  S
C445        C446   1.395       .  A
C446        C447   1.394       .  A
C446        H450   1.084       .  S
C447        C855   1.480       .  S
C447        C448   1.399       .  A
C448        H451   1.085       .  S
O452        C467   1.262       .  A
O452       Al460   1.892   1_556  S
C453        O463   1.274       .  A
C453        O454   1.255       .  A
C453       C1460   1.509       .  S
O454       Al456   1.887       .  S
O455        C457   1.253       .  A
O455       Al456   1.875       .  S
Al456       O464   1.871   1_554  S
Al456       O466   1.876   1_554  S
Al456       O465   1.791       .  S
C457        O470   1.256       .  A
C457        C844   1.455       .  S
O458        C468   1.261       .  A
O458       Al460   1.887       .  S
O459        C472   1.277       .  A
O459       Al469   1.982   1_556  S
Al460       O473   1.885   1_554  S
Al460       O470   1.887       .  S
Al460       O465   1.784       .  S
O461        C468   1.278       .  A
O461       Al469   1.976       .  S
O462        C471   1.277       .  A
O462       Al469   1.986   1_556  S
O463       Al469   1.970       .  S
O464        C471   1.252       .  A
O465       Al469   1.777       .  S
O466        C467   1.257       .  A
C467        C858   1.481       .  S
C468       C1516   1.530       .  S
C471       C1373   1.500       .  S
C472        O473   1.252       .  A
C472       C1292   1.533       .  S
O474        C489   1.256       .  A
O474       Al482   1.881       .  S
C475        O485   1.281       .  A
C475        O476   1.256       .  A
C475       C1628   1.537       .  S
O476       Al478   1.894   1_655  S
O477        C479   1.261       .  A
O477       Al478   1.886   1_655  S
Al478       O486   1.882       .  S
Al478       O488   1.867       .  S
Al478       O487   1.784       .  S
C479        O492   1.256       .  A
C479        C827   1.475       .  S
O480        C490   1.253       .  A
O480       Al482   1.870   1_655  S
O481        C494   1.279       .  A
O481       Al491   1.973       .  S
Al482       O495   1.892       .  S
Al482       O492   1.874   1_455  S
Al482       O487   1.785       .  S
O483        C490   1.272       .  A
O483       Al491   1.973   1_655  S
O484        C493   1.272       .  A
O484       Al491   1.977       .  S
O485       Al491   1.982   1_655  S
O486        C493   1.257       .  A
O487       Al491   1.780       .  S
O488        C489   1.253       .  A
C489        C813   1.478       .  S
C490       C1810   1.510       .  S
C493       C1474   1.493       .  S
C494        O495   1.258       .  A
C494       C1933   1.504       .  S
C496        C841   1.477       .  S
C496        C497   1.401       .  A
C496        C501   1.397       .  A
C497        C498   1.399       .  A
C497        H502   1.085       .  S
C498        C816   1.473       .  S
C498        C499   1.389       .  A
C499        C500   1.391       .  A
C499        H503   1.084       .  S
C500        C799   1.460       .  S
C500        C501   1.397       .  A
C501        H504   1.083       .  S
O505        C520   1.252       .  A
O505       Al513   1.882       .  S
C506        O516   1.275       .  A
C506        O507   1.251       .  A
C506       C1180   1.533       .  S
O507       Al509   1.889   1_556  S
O508        C510   1.263       .  A
O508       Al509   1.891   1_556  S
Al509       O517   1.895       .  S
Al509       O519   1.898       .  S
Al509       O518   1.790       .  S
C510        O523   1.260       .  A
C510        C788   1.467       .  S
O511        C521   1.251       .  A
O511       Al513   1.868   1_556  S
O512        C525   1.273       .  A
O512       Al522   1.966       .  S
Al513       O526   1.875       .  S
Al513       O523   1.877   1_554  S
Al513       O518   1.789       .  S
O514        C521   1.271       .  A
O514       Al522   1.966   1_556  S
O515        C524   1.276       .  A
O515       Al522   1.969       .  S
O516       Al522   1.980   1_556  S
O517        C524   1.266       .  A
O518       Al522   1.784       .  S
O519        C520   1.252       .  A
C520        C774   1.462       .  S
C521       C1264   1.496       .  S
C524       C1611   1.495       .  S
C525        O526   1.254       .  A
C525       C1527   1.503       .  S
C527        C830   1.475       .  S
C527        C528   1.393       .  A
C527        C532   1.402       .  A
C528        C529   1.398       .  A
C528        H533   1.084       .  S
C529        C771   1.469       .  S
C529        C530   1.394       .  A
C530        C531   1.402       .  A
C530        H534   1.083       .  S
C531        C757   1.493       .  S
C531        C532   1.404       .  A
C532        H535   1.083       .  S
O536        C551   1.260       .  A
O536       Al544   1.879   1_556  S
C537        O547   1.274       .  A
C537        O538   1.255       .  A
C537       C1684   1.503       .  S
O538       Al540   1.881       .  S
O539        C541   1.254       .  A
O539       Al540   1.886       .  S
Al540       O548   1.877   1_554  S
Al540       O550   1.883   1_554  S
Al540       O549   1.783       .  S
C541        O554   1.249       .  A
C541        C746   1.448       .  S
O542        C552   1.256       .  A
O542       Al544   1.864       .  S
O543        C556   1.275       .  A
O543       Al553   1.977   1_556  S
Al544       O557   1.886   1_554  S
Al544       O554   1.868       .  S
Al544       O549   1.791       .  S
O545        C552   1.280       .  A
O545       Al553   1.984       .  S
O546        C555   1.274       .  A
O546       Al553   1.978   1_556  S
O547       Al553   1.969       .  S
O548        C555   1.255       .  A
O549       Al553   1.777       .  S
O550        C551   1.261       .  A
C551        C897   1.455       .  S
C552       C1443   1.500       .  S
C555       C1138   1.501       .  S
C556        O557   1.250       .  A
C556       C1390   1.505       .  S
O558        C573   1.259       .  A
O558       Al566   1.896       .  S
C559        O569   1.266       .  A
C559        O560   1.242       .  A
C559       C1558   1.514       .  S
O560       Al562   1.845       .  S
O561        C563   1.257       .  A
O561       Al562   1.877       .  S
Al562       O570   1.867   1_565  S
Al562       O572   1.857   1_565  S
Al562       O571   1.795   1_565  S
C563        O576   1.252       .  A
C563        C802   1.456       .  S
O564        C574   1.259       .  A
O564       Al566   1.878   1_565  S
O565        C578   1.266       .  A
O565       Al575   1.961       .  S
Al566       O579   1.858       .  S
Al566       O576   1.869   1_545  S
Al566       O571   1.809       .  S
O567        C574   1.278       .  A
O567       Al575   1.967   1_565  S
O568        C577   1.279       .  A
O568       Al575   1.971       .  S
O569       Al575   1.963   1_565  S
O570        C577   1.258       .  A
O571       Al575   1.798       .  S
O572        C573   1.249       .  A
C573        C729   1.480       .  S
C574       C1975   1.523       .  S
C577       C1698   1.526       .  S
C578        O579   1.245       .  A
C578       C1009   1.498       .  S
O580        C595   1.257       .  A
O580       Al588   1.894   1_455  S
C581        O591   1.275       .  A
C581        O582   1.253       .  A
C581       C1894   1.518       .  S
O582       Al584   1.884       .  S
O583        C585   1.259       .  A
O583       Al584   1.888       .  S
Al584       O592   1.868   1_655  S
Al584       O594   1.883   1_655  S
Al584       O593   1.783       .  S
C585        O598   1.259       .  A
C585        C718   1.490       .  S
O586        C596   1.257       .  A
O586       Al588   1.871       .  S
O587        C600   1.278       .  A
O587       Al597   1.980   1_455  S
Al588       O601   1.880   1_655  S
Al588       O598   1.887       .  S
Al588       O593   1.783       .  S
O589        C596   1.276       .  A
O589       Al597   1.972       .  S
O590        C599   1.279       .  A
O590       Al597   1.980   1_455  S
O591       Al597   1.976       .  S
O592        C599   1.257       .  A
O593       Al597   1.777       .  S
O594        C595   1.257       .  A
C595        C701   1.463       .  S
C596       C1639   1.505       .  S
C599       C1023   1.512       .  S
C600        O601   1.254       .  A
C600       C1432   1.525       .  S
C602        C732   1.464       .  S
C602        C603   1.386       .  A
C602        C607   1.399       .  A
C603        C604   1.387       .  A
C603        H608   1.085       .  S
C604        C743   1.465       .  S
C604        C605   1.394       .  A
C605        C606   1.407       .  A
C605        H609   1.083       .  S
C606        C704   1.493       .  S
C606        C607   1.404       .  A
C607        H610   1.080       .  S
O611        C626   1.252       .  A
O611       Al619   1.876       .  S
C612        O622   1.279       .  A
C612        O613   1.251       .  A
C612       C1110   1.533       .  S
O613       Al615   1.886   1_556  S
O614        C616   1.259       .  A
O614       Al615   1.881   1_556  S
Al615       O623   1.872       .  S
Al615       O625   1.866       .  S
Al615       O624   1.783       .  S
C616        O629   1.258       .  A
C616        C956   1.448       .  S
O617        C627   1.255       .  A
O617       Al619   1.874   1_556  S
O618        C631   1.279       .  A
O618       Al628   1.980       .  S
Al619       O632   1.883       .  S
Al619       O629   1.883   1_554  S
Al619       O624   1.784       .  S
O620        C627   1.274       .  A
O620       Al628   1.972   1_556  S
O621        C630   1.278       .  A
O621       Al628   1.986       .  S
O622       Al628   1.984   1_556  S
O623        C630   1.256       .  A
O624       Al628   1.774       .  S
O625        C626   1.250       .  A
C626        C690   1.449       .  S
C627       C1222   1.501       .  S
C630       C1726   1.515       .  S
C631        O632   1.255       .  A
C631       C1600   1.518       .  S
O633        C648   1.262       .  A
O633       Al641   1.892   1_565  S
C634        O644   1.273       .  A
C634        O635   1.254       .  A
C634       C1709   1.503       .  S
O635       Al637   1.888       .  S
O636        C638   1.260       .  A
O636       Al637   1.904       .  S
Al637       O645   1.878   1_545  S
Al637       O647   1.902   1_545  S
Al637       O646   1.781       .  S
C638        O651   1.257       .  A
C638        C676   1.491       .  S
O639        C649   1.260       .  A
O639       Al641   1.878       .  S
O640        C653   1.274       .  A
O640       Al650   1.976   1_565  S
Al641       O654   1.898   1_545  S
Al641       O651   1.892       .  S
Al641       O646   1.783       .  S
O642        C649   1.281       .  A
O642       Al650   1.985       .  S
O643        C652   1.278       .  A
O643       Al650   1.977   1_565  S
O644       Al650   1.967       .  S
O645        C652   1.258       .  A
O646       Al650   1.775       .  S
O647        C648   1.262       .  A
C648        C760   1.472       .  S
C649       C1852   1.514       .  S
C652       C1541   1.516       .  S
C653        O654   1.255       .  A
C653       C1796   1.516       .  S
C655        C715   1.485       .  S
C655        C656   1.387       .  A
C655        C660   1.401       .  A
C656        C657   1.378       .  A
C656        H661   1.086       .  S
C657        C687   1.462       .  S
C657        C658   1.392       .  A
C658        C659   1.414       .  A
C658        H662   1.061       .  S
C659        C673   1.521       .  S
C659        C660   1.423       .  A
C660        H663   1.071       .  S
C664        C785   1.487       .  S
C664        C665   1.401       .  A
C664        C669   1.400       .  A
C665        C666   1.398       .  A
C665        H670   1.081       .  S
C666        C998   1.462       .  S
C666        C667   1.392       .  A
C667        C668   1.387       .  A
C667        H671   1.084       .  S
C668        C883   1.467       .  S
C668        C669   1.397       .  A
C669        H672   1.085       .  S
C673        C674   1.409       .  A
C673        C678   1.420       .  A
C674        C675   1.400       .  A
C674        C679   1.450       .  S
C675        C676   1.419       .  A
C675        C682   1.451       .  S
C676        C677   1.419       .  A
C677        C678   1.411       .  A
C677        C680   1.453       .  S
C678        C681   1.449       .  S
C679        N686   1.157       .  T
C680        N685   1.158       .  T
C681        N683   1.158       .  T
C682        N684   1.157       .  T
C687        C688   1.410       .  A
C687        C692   1.409       .  A
C688        C689   1.399       .  A
C688        C693   1.453       .  S
C689        C690   1.407       .  A
C689        C696   1.452       .  S
C690        C691   1.408       .  A
C691        C692   1.400       .  A
C691        C694   1.453       .  S
C692        C695   1.451       .  S
C693        N700   1.157       .  T
C694        N699   1.157       .  T
C695        N697   1.157       .  T
C696        N698   1.157       .  T
C701        C702   1.403       .  A
C701        C706   1.407       .  A
C702        C703   1.399       .  A
C702        C707   1.453       .  S
C703        C704   1.422       .  A
C703        C710   1.449       .  S
C704        C705   1.417       .  A
C705        C706   1.407       .  A
C705        C708   1.452       .  S
C706        C709   1.449       .  S
C707        N714   1.157       .  T
C708        N713   1.157       .  T
C709        N711   1.156       .  T
C710        N712   1.158       .  T
C715        C716   1.417       .  A
C715        C720   1.410       .  A
C716        C717   1.411       .  A
C716        C721   1.452       .  S
C717        C718   1.421       .  A
C717        C724   1.452       .  S
C718        C719   1.419       .  A
C719        C720   1.394       .  A
C719        C722   1.453       .  S
C720        C723   1.454       .  S
C721        N728   1.157       .  T
C722        N727   1.157       .  T
C723        N725   1.157       .  T
C724        N726   1.158       .  T
C729        C730   1.430       .  A
C729        C734   1.410       .  A
C730        C731   1.404       .  A
C730        C735   1.454       .  S
C731        C732   1.400       .  A
C731        C738   1.453       .  S
C732        C733   1.410       .  A
C733        C734   1.396       .  A
C733        C736   1.453       .  S
C734        C737   1.448       .  S
C735        N742   1.158       .  T
C736        N741   1.157       .  T
C737        N739   1.156       .  T
C738        N740   1.157       .  T
C743        C744   1.409       .  A
C743        C748   1.413       .  A
C744        C745   1.399       .  A
C744        C749   1.453       .  S
C745        C746   1.409       .  A
C745        C752   1.452       .  S
C746        C747   1.407       .  A
C747        C748   1.400       .  A
C747        C750   1.453       .  S
C748        C751   1.452       .  S
C749        N756   1.157       .  T
C750        N755   1.158       .  T
C751        N753   1.157       .  T
C752        N754   1.157   1_554  T
C757        C758   1.423       .  A
C757        C762   1.418       .  A
C758        C759   1.403       .  A
C758        C763   1.454       .  S
C759        C760   1.409       .  A
C759        C766   1.453       .  S
C760        C761   1.411       .  A
C761        C762   1.408       .  A
C761        C764   1.453       .  S
C762        C765   1.451       .  S
C763        N770   1.158       .  T
C764        N769   1.157       .  T
C765        N767   1.157       .  T
C766        N768   1.157       .  T
C771        C772   1.415       .  A
C771        C776   1.402       .  A
C772        C773   1.395       .  A
C772        C777   1.454       .  S
C773        C774   1.401       .  A
C773        C780   1.446       .  S
C774        C775   1.417       .  A
C775        C776   1.408       .  A
C775        C778   1.447       .  S
C776        C779   1.450       .  S
C777        N784   1.158       .  T
C778        N783   1.157   1_554  T
C779        N781   1.157       .  T
C780        N782   1.155       .  T
C785        C786   1.420       .  A
C785        C790   1.416       .  A
C786        C787   1.402       .  A
C786        C791   1.452       .  S
C787        C788   1.413       .  A
C787        C794   1.455       .  S
C788        C789   1.409       .  A
C789        C790   1.402       .  A
C789        C792   1.453       .  S
C790        C793   1.451       .  S
C791        N798   1.158       .  T
C792        N797   1.157       .  T
C793        N795   1.156       .  T
C794        N796   1.157       .  T
C799        C800   1.418       .  A
C799        C804   1.402       .  A
C800        C801   1.397       .  A
C800        C805   1.453       .  S
C801        C802   1.403       .  A
C801        C808   1.453       .  S
C802        C803   1.416       .  A
C803        C804   1.399       .  A
C803        C806   1.451       .  S
C804        C807   1.452       .  S
C805        N812   1.158       .  T
C806        N811   1.157   1_565  T
C807        N809   1.157       .  T
C808        N810   1.157       .  T
C813        C814   1.424       .  A
C813        C818   1.412       .  A
C814        C815   1.400       .  A
C814        C819   1.454       .  S
C815        C816   1.404       .  A
C815        C822   1.453       .  S
C816        C817   1.417       .  A
C817        C818   1.403       .  A
C817        C820   1.452       .  S
C818        C821   1.452       .  S
C819        N826   1.158       .  T
C820        N825   1.157       .  T
C821        N823   1.157       .  T
C822        N824   1.157       .  T
C827        C828   1.421       .  A
C827        C832   1.411       .  A
C828        C829   1.400       .  A
C828        C833   1.454       .  S
C829        C830   1.406       .  A
C829        C836   1.454       .  S
C830        C831   1.415       .  A
C831        C832   1.405       .  A
C831        C834   1.449       .  S
C832        C835   1.454       .  S
C833        N840   1.157   1_655  T
C834        N839   1.157       .  T
C835        N837   1.157       .  T
C836        N838   1.157       .  T
C841        C842   1.413       .  A
C841        C846   1.418       .  A
C842        C843   1.403       .  A
C842        C847   1.452       .  S
C843        C844   1.404       .  A
C843        C850   1.446       .  S
C844        C845   1.400       .  A
C845        C846   1.399       .  A
C845        C848   1.452       .  S
C846        C849   1.448       .  S
C847        N854   1.157       .  T
C848        N853   1.157       .  T
C849        N851   1.157       .  T
C850        N852   1.155       .  T
C855        C856   1.421       .  A
C855        C860   1.410       .  A
C856        C857   1.405       .  A
C856        C861   1.452       .  S
C857        C858   1.408       .  A
C857        C864   1.451       .  S
C858        C859   1.414       .  A
C859        C860   1.396       .  A
C859        C862   1.451       .  S
C860        C863   1.453       .  S
C861        N868   1.157       .  T
C862        N867   1.158       .  T
C863        N865   1.157       .  T
C864        N866   1.157       .  T
C869        C870   1.404       .  A
C869        C874   1.401       .  A
C870        C871   1.398       .  A
C870        C875   1.444       .  S
C871        C872   1.408       .  A
C871        C878   1.453       .  S
C872        C873   1.414       .  A
C873        C874   1.399       .  A
C873        C876   1.447       .  S
C874        C877   1.451       .  S
C875        N882   1.155       .  T
C876        N881   1.157       .  T
C877        N879   1.157       .  T
C878        N880   1.157       .  T
C883        C884   1.404       .  A
C883        C888   1.418       .  A
C884        C885   1.387       .  A
C884        C889   1.450       .  S
C885        C886   1.410       .  A
C885        C892   1.450       .  S
C886        C887   1.408       .  A
C887        C888   1.407       .  A
C887        C890   1.449       .  S
C888        C891   1.451       .  S
C889        N896   1.157       .  T
C890        N895   1.157       .  T
C891        N893   1.157       .  T
C892        N894   1.158       .  T
C897        C898   1.410       .  A
C897        C902   1.403       .  A
C898        C899   1.404       .  A
C898        C903   1.452       .  S
C899        C900   1.414       .  A
C899        C906   1.452       .  S
C900        C901   1.425       .  A
C901        C902   1.399       .  A
C901        C904   1.450       .  S
C902        C905   1.457       .  S
C903        N910   1.157       .  T
C904        N909   1.158       .  T
C905        N907   1.157       .  T
C906        N908   1.157       .  T
C911        C912   1.415       .  A
C911        C916   1.398       .  A
C912        C913   1.400       .  A
C912        C917   1.454       .  S
C913        C914   1.405       .  A
C913        C920   1.452       .  S
C914        C915   1.423       .  A
C915        C916   1.397       .  A
C915        C918   1.453       .  S
C916        C919   1.453       .  S
C917        N924   1.157       .  T
C918        N923   1.158   1_545  T
C919        N921   1.157       .  T
C920        N922   1.157       .  T
C925        C926   1.424       .  A
C925        C930   1.402       .  A
C926        C927   1.398       .  A
C926        C931   1.453       .  S
C927        C928   1.398       .  A
C927        C934   1.452       .  S
C928        C929   1.416       .  A
C929        C930   1.396       .  A
C929        C932   1.452       .  S
C930        C933   1.452       .  S
C931        N938   1.158   1_565  T
C932        N937   1.158       .  T
C933        N935   1.157       .  T
C934        N936   1.157       .  T
C939        C940   1.407       .  A
C939        C944   1.405       .  A
C940        C941   1.399       .  A
C940        C945   1.453       .  S
C941        C942   1.414       .  A
C941        C948   1.454       .  S
C942        C943   1.417       .  A
C943        C944   1.402       .  A
C943        C946   1.452       .  S
C944        C947   1.453       .  S
C945        N952   1.157       .  T
C946        N951   1.158       .  T
C947        N949   1.157       .  T
C948        N950   1.157       .  T
C953        C954   1.414       .  A
C953        C958   1.410       .  A
C954        C955   1.402       .  A
C954        C959   1.451       .  S
C955        C956   1.405       .  A
C955        C962   1.452       .  S
C956        C957   1.408       .  A
C957        C958   1.398       .  A
C957        C960   1.452       .  S
C958        C961   1.453       .  S
C959        N966   1.157       .  T
C960        N965   1.157   1_556  T
C961        N963   1.157       .  T
C962        N964   1.157       .  T
C967        C968   1.415       .  A
C967        C972   1.423       .  A
C968        C969   1.406       .  A
C968        C973   1.452       .  S
C969        C970   1.410       .  A
C969        C976   1.452       .  S
C970        C971   1.411       .  A
C971        C972   1.400       .  A
C971        C974   1.456       .  S
C972        C975   1.452       .  S
C973        N980   1.157       .  T
C974        N979   1.157       .  T
C975        N977   1.158       .  T
C976        N978   1.157       .  T
C981        C982   1.407       .  A
C981        C986   1.425       .  A
C982        C983   1.399       .  A
C982        C987   1.451       .  S
C983        C984   1.415       .  A
C983        C990   1.454       .  S
C984        C985   1.399       .  A
C985        C986   1.400       .  A
C985        C988   1.452       .  S
C986        C989   1.453       .  S
C987        N994   1.157       .  T
C988        N993   1.157       .  T
C989        N991   1.158   1_545  T
C990        N992   1.157       .  T
C995        C996   1.403       .  A
C995       C1000   1.421       .  A
C996        C997   1.400       .  A
C996       C1001   1.453       .  S
C997        C998   1.420       .  A
C997       C1004   1.454       .  S
C998        C999   1.400       .  A
C999       C1000   1.400       .  A
C999       C1002   1.452       .  S
C1000      C1003   1.452       .  S
C1001      N1008   1.157       .  T
C1002      N1007   1.157       .  T
C1003      N1005   1.157   1_565  T
C1004      N1006   1.158       .  T
C1009      C1010   1.413       .  A
C1009      C1014   1.413       .  A
C1010      C1011   1.419       .  A
C1010      C1015   1.448       .  S
C1011      C1012   1.416       .  A
C1011      C1018   1.451       .  S
C1012      C1013   1.415       .  A
C1013      C1014   1.422       .  A
C1013      C1016   1.448       .  S
C1014      C1017   1.449       .  S
C1015      N1022   1.156       .  T
C1016      N1021   1.157       .  T
C1017      N1019   1.158       .  T
C1018      N1020   1.157       .  T
C1023      C1024   1.431       .  A
C1023      C1028   1.412       .  A
C1024      C1025   1.417       .  A
C1024      C1029   1.453       .  S
C1025      C1026   1.410       .  A
C1025      C1032   1.452       .  S
C1026      C1027   1.428       .  A
C1027      C1028   1.416       .  A
C1027      C1030   1.452       .  S
C1028      C1031   1.452       .  S
C1029      N1036   1.158       .  T
C1030      N1035   1.158       .  T
C1031      N1033   1.158       .  T
C1032      N1034   1.157       .  T
C1037      C1038   1.407       .  A
C1037      C1042   1.430       .  A
C1038      C1039   1.424       .  A
C1038      C1043   1.452       .  S
C1039      C1040   1.435       .  A
C1039      C1046   1.448       .  S
C1040      C1041   1.413       .  A
C1041      C1042   1.423       .  A
C1041      C1044   1.450       .  S
C1042      C1045   1.451       .  S
C1043      N1050   1.157       .  T
C1044      N1049   1.157       .  T
C1045      N1047   1.157       .  T
C1046      N1048   1.156       .  T
C1051      C1052   1.412       .  A
C1051      C1056   1.429       .  A
C1052      C1053   1.418       .  A
C1052      C1057   1.452       .  S
C1053      C1054   1.428       .  A
C1053      C1060   1.452       .  S
C1054      C1055   1.412       .  A
C1055      C1056   1.419       .  A
C1055      C1058   1.451       .  S
C1056      C1059   1.452       .  S
C1057      N1064   1.158       .  T
C1058      N1063   1.157       .  T
C1059      N1061   1.157       .  T
C1060      N1062   1.158       .  T
C1065      C1066   1.408       .  A
C1065      C1070   1.403       .  A
C1066      C1067   1.398       .  A
C1066      C1071   1.452       .  S
C1067      C1068   1.409       .  A
C1067      C1074   1.453       .  S
C1068      C1069   1.417       .  A
C1069      C1070   1.399       .  A
C1069      C1072   1.452       .  S
C1070      C1073   1.453       .  S
C1071      N1078   1.157       .  T
C1072      N1077   1.157       .  T
C1073      N1075   1.157       .  T
C1074      N1076   1.157       .  T
C1079      C1080   1.418       .  A
C1079      C1084   1.412       .  A
C1080      C1081   1.399       .  A
C1080      C1085   1.453       .  S
C1081      C1082   1.405       .  A
C1081      C1088   1.453       .  S
C1082      C1083   1.407       .  A
C1083      C1084   1.401       .  A
C1083      C1086   1.453       .  S
C1084      C1087   1.452       .  S
C1085      N1092   1.158       .  T
C1086      N1091   1.157       .  T
C1087      N1089   1.157       .  T
C1088      N1090   1.157       .  T
C1093      C1094   1.411       .  A
C1093      C1098   1.434       .  A
C1094      C1095   1.421       .  A
C1094      C1099   1.453       .  S
C1095      C1096   1.432       .  A
C1095      C1102   1.451       .  S
C1096      C1097   1.410       .  A
C1097      C1098   1.423       .  A
C1097      C1100   1.451       .  S
C1098      C1101   1.452       .  S
C1099      N1106   1.158       .  T
C1100      N1105   1.157       .  T
C1101      N1103   1.158       .  T
C1102      N1104   1.157       .  T
C1107      C1108   1.412       .  A
C1107      C1112   1.440       .  A
C1108      C1109   1.425       .  A
C1108      C1113   1.452       .  S
C1109      C1110   1.439       .  A
C1109      C1116   1.453       .  S
C1110      C1111   1.411       .  A
C1111      C1112   1.424       .  A
C1111      C1114   1.453       .  S
C1112      C1115   1.454       .  S
C1113      N1120   1.158       .  T
C1114      N1119   1.158       .  T
C1115      N1117   1.158       .  T
C1116      N1118   1.158       .  T
C1121      C1122   1.410       .  A
C1121      C1126   1.413       .  A
C1122      C1123   1.418       .  A
C1122      C1127   1.451       .  S
C1123      C1124   1.418       .  A
C1123      C1130   1.445       .  S
C1124      C1125   1.415       .  A
C1125      C1126   1.419       .  A
C1125      C1128   1.447       .  S
C1126      C1129   1.450       .  S
C1127      N1134   1.157       .  T
C1128      N1133   1.156       .  T
C1129      N1131   1.157       .  T
C1130      N1132   1.155       .  T
C1135      C1136   1.414       .  A
C1135      C1140   1.417       .  A
C1136      C1137   1.414       .  A
C1136      C1141   1.449       .  S
C1137      C1138   1.409       .  A
C1137      C1144   1.442       .  S
C1138      C1139   1.419       .  A
C1139      C1140   1.421       .  A
C1139      C1142   1.449       .  S
C1140      C1143   1.450       .  S
C1141      N1148   1.157       .  T
C1142      N1147   1.157   1_556  T
C1143      N1145   1.157       .  T
C1144      N1146   1.156       .  T
C1149      C1150   1.421       .  A
C1149      C1154   1.404       .  A
C1150      C1151   1.409       .  A
C1150      C1155   1.451       .  S
C1151      C1152   1.413       .  A
C1151      C1158   1.451       .  S
C1152      C1153   1.423       .  A
C1153      C1154   1.394       .  A
C1153      C1156   1.452       .  S
C1154      C1157   1.455       .  S
C1155      N1162   1.158       .  T
C1156      N1161   1.157       .  T
C1157      N1159   1.157       .  T
C1158      N1160   1.157       .  T
C1163      C1164   1.414       .  A
C1163      C1168   1.410       .  A
C1164      C1165   1.398       .  A
C1164      C1169   1.454       .  S
C1165      C1166   1.419       .  A
C1165      C1172   1.453       .  S
C1166      C1167   1.416       .  A
C1167      C1168   1.406       .  A
C1167      C1170   1.452       .  S
C1168      C1171   1.449       .  S
C1169      N1176   1.157       .  T
C1170      N1175   1.157       .  T
C1171      N1173   1.157       .  T
C1172      N1174   1.157       .  T
C1177      C1178   1.425       .  A
C1177      C1182   1.409       .  A
C1178      C1179   1.425       .  A
C1178      C1183   1.450       .  S
C1179      C1180   1.416       .  A
C1179      C1186   1.451       .  S
C1180      C1181   1.437       .  A
C1181      C1182   1.425       .  A
C1181      C1184   1.452       .  S
C1182      C1185   1.452       .  S
C1183      N1190   1.157       .  T
C1184      N1189   1.158       .  T
C1185      N1187   1.157       .  T
C1186      N1188   1.157       .  T
C1191      C1192   1.418       .  A
C1191      C1196   1.405       .  A
C1192      C1193   1.419       .  A
C1192      C1197   1.449       .  S
C1193      C1194   1.413       .  A
C1193      C1200   1.448       .  S
C1194      C1195   1.427       .  A
C1195      C1196   1.417       .  A
C1195      C1198   1.449       .  S
C1196      C1199   1.452       .  S
C1197      N1204   1.157       .  T
C1198      N1203   1.156       .  T
C1199      N1201   1.157       .  T
C1200      N1202   1.157       .  T
C1205      C1206   1.437       .  A
C1205      C1210   1.415       .  A
C1206      C1207   1.423       .  A
C1206      C1211   1.452       .  S
C1207      C1208   1.412       .  A
C1207      C1214   1.452       .  S
C1208      C1209   1.433       .  A
C1209      C1210   1.425       .  A
C1209      C1212   1.452       .  S
C1210      C1213   1.451       .  S
C1211      N1218   1.158       .  T
C1212      N1217   1.158       .  T
C1213      N1215   1.158       .  T
C1214      N1216   1.158       .  T
C1219      C1220   1.438       .  A
C1219      C1224   1.422       .  A
C1220      C1221   1.420       .  A
C1220      C1225   1.452       .  S
C1221      C1222   1.404       .  A
C1221      C1228   1.452       .  S
C1222      C1223   1.417       .  A
C1223      C1224   1.421       .  A
C1223      C1226   1.452       .  S
C1224      C1227   1.451       .  S
C1225      N1232   1.158       .  T
C1226      N1231   1.157       .  T
C1227      N1229   1.158       .  T
C1228      N1230   1.157       .  T
C1233      C1234   1.400       .  A
C1233      C1238   1.410       .  A
C1234      C1235   1.399       .  A
C1234      C1239   1.455       .  S
C1235      C1236   1.424       .  A
C1235      C1242   1.452       .  S
C1236      C1237   1.411       .  A
C1237      C1238   1.404       .  A
C1237      C1240   1.451       .  S
C1238      C1241   1.452       .  S
C1239      N1246   1.157       .  T
C1240      N1245   1.157       .  T
C1241      N1243   1.157       .  T
C1242      N1244   1.157       .  T
C1247      C1248   1.415       .  A
C1247      C1252   1.403       .  A
C1248      C1249   1.395       .  A
C1248      C1253   1.454       .  S
C1249      C1250   1.401       .  A
C1249      C1256   1.452       .  S
C1250      C1251   1.410       .  A
C1251      C1252   1.400       .  A
C1251      C1254   1.451       .  S
C1252      C1255   1.451       .  S
C1253      N1260   1.157       .  T
C1254      N1259   1.157       .  T
C1255      N1257   1.157       .  T
C1256      N1258   1.157       .  T
C1261      C1262   1.411       .  A
C1261      C1266   1.414       .  A
C1262      C1263   1.414       .  A
C1262      C1267   1.451       .  S
C1263      C1264   1.416       .  A
C1263      C1270   1.446       .  S
C1264      C1265   1.414       .  A
C1265      C1266   1.419       .  A
C1265      C1268   1.450       .  S
C1266      C1269   1.449       .  S
C1267      N1274   1.157       .  T
C1268      N1273   1.157       .  T
C1269      N1271   1.158       .  T
C1270      N1272   1.156   1_556  T
C1275      C1276   1.412       .  A
C1275      C1280   1.428       .  A
C1276      C1277   1.424       .  A
C1276      C1281   1.452       .  S
C1277      C1278   1.433       .  A
C1277      C1284   1.450       .  S
C1278      C1279   1.410       .  A
C1279      C1280   1.423       .  A
C1279      C1282   1.451       .  S
C1280      C1283   1.447       .  S
C1281      N1288   1.157       .  T
C1282      N1287   1.157       .  T
C1283      N1285   1.156       .  T
C1284      N1286   1.157       .  T
C1289      C1290   1.438       .  A
C1289      C1294   1.414       .  A
C1290      C1291   1.427       .  A
C1290      C1295   1.453       .  S
C1291      C1292   1.413       .  A
C1291      C1298   1.452       .  S
C1292      C1293   1.435       .  A
C1293      C1294   1.425       .  A
C1293      C1296   1.453       .  S
C1294      C1297   1.449       .  S
C1295      N1302   1.158       .  T
C1296      N1301   1.158       .  T
C1297      N1299   1.156       .  T
C1298      N1300   1.158       .  T
C1303      C1304   1.417       .  A
C1303      C1308   1.427       .  A
C1304      C1305   1.421       .  A
C1304      C1309   1.450       .  S
C1305      C1306   1.426       .  A
C1305      C1312   1.453       .  S
C1306      C1307   1.411       .  A
C1307      C1308   1.417       .  A
C1307      C1310   1.447       .  S
C1308      C1311   1.453       .  S
C1309      N1316   1.157       .  T
C1310      N1315   1.155       .  T
C1311      N1313   1.158       .  T
C1312      N1314   1.158       .  T
C1317      C1318   1.412       .  A
C1317      C1322   1.409       .  A
C1318      C1319   1.411       .  A
C1318      C1323   1.451       .  S
C1319      C1320   1.420       .  A
C1319      C1326   1.451       .  S
C1320      C1321   1.414       .  A
C1321      C1322   1.395       .  A
C1321      C1324   1.450       .  S
C1322      C1325   1.450       .  S
C1323      N1330   1.157       .  T
C1324      N1329   1.158       .  T
C1325      N1327   1.155       .  T
C1326      N1328   1.157       .  T
C1331      C1332   1.412       .  A
C1331      C1336   1.406       .  A
C1332      C1333   1.407       .  A
C1332      C1337   1.452       .  S
C1333      C1334   1.412       .  A
C1333      C1340   1.451       .  S
C1334      C1335   1.418       .  A
C1335      C1336   1.396       .  A
C1335      C1338   1.454       .  S
C1336      C1339   1.450       .  S
C1337      N1344   1.157       .  T
C1338      N1343   1.157       .  T
C1339      N1341   1.156       .  T
C1340      N1342   1.157       .  T
C1345      C1346   1.423       .  A
C1345      C1350   1.435       .  A
C1346      C1347   1.419       .  A
C1346      C1351   1.451       .  S
C1347      C1348   1.415       .  A
C1347      C1354   1.451       .  S
C1348      C1349   1.405       .  A
C1349      C1350   1.421       .  A
C1349      C1352   1.452       .  S
C1350      C1353   1.451       .  S
C1351      N1358   1.158       .  T
C1352      N1357   1.157       .  T
C1353      N1355   1.158       .  T
C1354      N1356   1.157       .  T
C1359      C1360   1.409       .  A
C1359      C1364   1.423       .  A
C1360      C1361   1.423       .  A
C1360      C1365   1.450       .  S
C1361      C1362   1.424       .  A
C1361      C1368   1.448       .  S
C1362      C1363   1.409       .  A
C1363      C1364   1.421       .  A
C1363      C1366   1.447       .  S
C1364      C1367   1.451       .  S
C1365      N1372   1.157       .  T
C1366      N1371   1.156       .  T
C1367      N1369   1.157       .  T
C1368      N1370   1.157       .  T
C1373      C1374   1.415       .  A
C1373      C1378   1.411       .  A
C1374      C1375   1.424       .  A
C1374      C1379   1.450       .  S
C1375      C1376   1.419       .  A
C1375      C1382   1.448       .  S
C1376      C1377   1.412       .  A
C1377      C1378   1.414       .  A
C1377      C1380   1.442       .  S
C1378      C1381   1.446       .  S
C1379      N1386   1.157       .  T
C1380      N1385   1.154       .  T
C1381      N1383   1.155   1_556  T
C1382      N1384   1.157       .  T
C1387      C1388   1.410       .  A
C1387      C1392   1.421       .  A
C1388      C1389   1.422       .  A
C1388      C1393   1.449       .  S
C1389      C1390   1.422       .  A
C1389      C1396   1.448       .  S
C1390      C1391   1.406       .  A
C1391      C1392   1.415       .  A
C1391      C1394   1.447       .  S
C1392      C1395   1.443       .  S
C1393      N1400   1.158       .  T
C1394      N1399   1.157       .  T
C1395      N1397   1.155       .  T
C1396      N1398   1.157   1_556  T
C1401      C1402   1.402       .  A
C1401      C1406   1.414       .  A
C1402      C1403   1.400       .  A
C1402      C1407   1.452       .  S
C1403      C1404   1.417       .  A
C1403      C1410   1.452       .  S
C1404      C1405   1.402       .  A
C1405      C1406   1.402       .  A
C1405      C1408   1.451       .  S
C1406      C1409   1.448       .  S
C1407      N1414   1.158       .  T
C1408      N1413   1.157       .  T
C1409      N1411   1.157       .  T
C1410      N1412   1.157       .  T
C1415      C1416   1.417       .  A
C1415      C1420   1.425       .  A
C1416      C1417   1.407       .  A
C1416      C1421   1.452       .  S
C1417      C1418   1.413       .  A
C1417      C1424   1.453       .  S
C1418      C1419   1.404       .  A
C1419      C1420   1.396       .  A
C1419      C1422   1.455       .  S
C1420      C1423   1.456       .  S
C1421      N1428   1.157       .  T
C1422      N1427   1.157       .  T
C1423      N1425   1.158       .  T
C1424      N1426   1.157       .  T
C1429      C1430   1.427       .  A
C1429      C1434   1.411       .  A
C1430      C1431   1.425       .  A
C1430      C1435   1.449       .  S
C1431      C1432   1.412       .  A
C1431      C1438   1.449       .  S
C1432      C1433   1.431       .  A
C1433      C1434   1.425       .  A
C1433      C1436   1.452       .  S
C1434      C1437   1.449       .  S
C1435      N1442   1.157       .  T
C1436      N1441   1.158       .  T
C1437      N1439   1.157       .  T
C1438      N1440   1.157       .  T
C1443      C1444   1.423       .  A
C1443      C1448   1.406       .  A
C1444      C1445   1.416       .  A
C1444      C1449   1.453       .  S
C1445      C1446   1.415       .  A
C1445      C1452   1.452       .  S
C1446      C1447   1.433       .  A
C1447      C1448   1.417       .  A
C1447      C1450   1.452       .  S
C1448      C1451   1.452       .  S
C1449      N1456   1.158       .  T
C1450      N1455   1.158       .  T
C1451      N1453   1.157       .  T
C1452      N1454   1.158       .  T
C1457      C1458   1.411       .  A
C1457      C1462   1.425       .  A
C1458      C1459   1.422       .  A
C1458      C1463   1.451       .  S
C1459      C1460   1.422       .  A
C1459      C1466   1.448       .  S
C1460      C1461   1.410       .  A
C1461      C1462   1.422       .  A
C1461      C1464   1.451       .  S
C1462      C1465   1.450       .  S
C1463      N1470   1.157       .  T
C1464      N1469   1.157       .  T
C1465      N1467   1.157       .  T
C1466      N1468   1.157       .  T
C1471      C1472   1.415       .  A
C1471      C1476   1.414       .  A
C1472      C1473   1.410       .  A
C1472      C1477   1.449       .  S
C1473      C1474   1.405       .  A
C1473      C1480   1.445       .  S
C1474      C1475   1.415       .  A
C1475      C1476   1.419       .  A
C1475      C1478   1.446       .  S
C1476      C1479   1.447       .  S
C1477      N1484   1.157       .  T
C1478      N1483   1.156   1_455  T
C1479      N1481   1.156       .  T
C1480      N1482   1.156       .  T
C1485      C1486   1.413       .  A
C1485      C1490   1.410       .  A
C1486      C1487   1.406       .  A
C1486      C1491   1.453       .  S
C1487      C1488   1.417       .  A
C1487      C1494   1.452       .  S
C1488      C1489   1.419       .  A
C1489      C1490   1.397       .  A
C1489      C1492   1.454       .  S
C1490      C1493   1.452       .  S
C1491      N1498   1.157       .  T
C1492      N1497   1.158       .  T
C1493      N1495   1.158       .  T
C1494      N1496   1.157       .  T
C1499      C1500   1.400       .  A
C1499      C1504   1.406       .  A
C1500      C1501   1.398       .  A
C1500      C1505   1.455       .  S
C1501      C1502   1.423       .  A
C1501      C1508   1.450       .  S
C1502      C1503   1.415       .  A
C1503      C1504   1.403       .  A
C1503      C1506   1.452       .  S
C1504      C1507   1.452       .  S
C1505      N1512   1.157       .  T
C1506      N1511   1.157       .  T
C1507      N1509   1.157       .  T
C1508      N1510   1.157       .  T
C1513      C1514   1.406       .  A
C1513      C1518   1.419       .  A
C1514      C1515   1.422       .  A
C1514      C1519   1.452       .  S
C1515      C1516   1.436       .  A
C1515      C1522   1.451       .  S
C1516      C1517   1.423       .  A
C1517      C1518   1.419       .  A
C1517      C1520   1.452       .  S
C1518      C1521   1.453       .  S
C1519      N1526   1.157       .  T
C1520      N1525   1.158       .  T
C1521      N1523   1.158       .  T
C1522      N1524   1.158       .  T
C1527      C1528   1.410       .  A
C1527      C1532   1.421       .  A
C1528      C1529   1.420       .  A
C1528      C1533   1.451       .  S
C1529      C1530   1.419       .  A
C1529      C1536   1.448       .  S
C1530      C1531   1.412       .  A
C1531      C1532   1.421       .  A
C1531      C1534   1.450       .  S
C1532      C1535   1.449       .  S
C1533      N1540   1.157       .  T
C1534      N1539   1.157       .  T
C1535      N1537   1.157       .  T
C1536      N1538   1.157       .  T
C1541      C1542   1.428       .  A
C1541      C1546   1.412       .  A
C1542      C1543   1.420       .  A
C1542      C1547   1.451       .  S
C1543      C1544   1.410       .  A
C1543      C1550   1.450       .  S
C1544      C1545   1.428       .  A
C1545      C1546   1.419       .  A
C1545      C1548   1.452       .  S
C1546      C1549   1.451       .  S
C1547      N1554   1.157       .  T
C1548      N1553   1.158       .  T
C1549      N1551   1.157       .  T
C1550      N1552   1.157       .  T
C1555      C1556   1.410       .  A
C1555      C1560   1.428       .  A
C1556      C1557   1.419       .  A
C1556      C1561   1.451       .  S
C1557      C1558   1.429       .  A
C1557      C1564   1.453       .  S
C1558      C1559   1.410       .  A
C1559      C1560   1.422       .  A
C1559      C1562   1.451       .  S
C1560      C1563   1.450       .  S
C1561      N1568   1.157       .  T
C1562      N1567   1.157       .  T
C1563      N1565   1.157       .  T
C1564      N1566   1.158       .  T
C1569      C1570   1.409       .  A
C1569      C1574   1.407       .  A
C1570      C1571   1.398       .  A
C1570      C1575   1.453       .  S
C1571      C1572   1.408       .  A
C1571      C1578   1.453       .  S
C1572      C1573   1.410       .  A
C1573      C1574   1.400       .  A
C1573      C1576   1.451       .  S
C1574      C1577   1.452       .  S
C1575      N1582   1.157       .  T
C1576      N1581   1.157       .  T
C1577      N1579   1.157       .  T
C1578      N1580   1.157       .  T
C1583      C1584   1.409       .  A
C1583      C1588   1.401       .  A
C1584      C1585   1.402       .  A
C1584      C1589   1.450       .  S
C1585      C1586   1.407       .  A
C1585      C1592   1.451       .  S
C1586      C1587   1.420       .  A
C1587      C1588   1.399       .  A
C1587      C1590   1.453       .  S
C1588      C1591   1.453       .  S
C1589      N1596   1.157       .  T
C1590      N1595   1.157       .  T
C1591      N1593   1.157       .  T
C1592      N1594   1.157       .  T
C1597      C1598   1.413       .  A
C1597      C1602   1.435       .  A
C1598      C1599   1.423       .  A
C1598      C1603   1.450       .  S
C1599      C1600   1.428       .  A
C1599      C1606   1.450       .  S
C1600      C1601   1.409       .  A
C1601      C1602   1.424       .  A
C1601      C1604   1.451       .  S
C1602      C1605   1.452       .  S
C1603      N1610   1.157       .  T
C1604      N1609   1.157       .  T
C1605      N1607   1.158       .  T
C1606      N1608   1.157       .  T
C1611      C1612   1.412       .  A
C1611      C1616   1.408       .  A
C1612      C1613   1.418       .  A
C1612      C1617   1.449       .  S
C1613      C1614   1.417       .  A
C1613      C1620   1.451       .  S
C1614      C1615   1.419       .  A
C1615      C1616   1.416       .  A
C1615      C1618   1.451       .  S
C1616      C1619   1.448       .  S
C1617      N1624   1.157       .  T
C1618      N1623   1.157       .  T
C1619      N1621   1.157       .  T
C1620      N1622   1.157       .  T
C1625      C1626   1.423       .  A
C1625      C1630   1.412       .  A
C1626      C1627   1.420       .  A
C1626      C1631   1.440       .  S
C1627      C1628   1.411       .  A
C1627      C1634   1.448       .  S
C1628      C1629   1.440       .  A
C1629      C1630   1.428       .  A
C1629      C1632   1.452       .  S
C1630      C1633   1.450       .  S
C1631      N1638   1.152       .  T
C1632      N1637   1.158       .  T
C1633      N1635   1.157       .  T
C1634      N1636   1.155       .  T
C1639      C1640   1.416       .  A
C1639      C1644   1.419       .  A
C1640      C1641   1.421       .  A
C1640      C1645   1.450       .  S
C1641      C1642   1.416       .  A
C1641      C1648   1.450       .  S
C1642      C1643   1.412       .  A
C1643      C1644   1.417       .  A
C1643      C1646   1.447       .  S
C1644      C1647   1.453       .  S
C1645      N1652   1.157       .  T
C1646      N1651   1.156       .  T
C1647      N1649   1.158       .  T
C1648      N1650   1.157       .  T
C1653      C1654   1.413       .  A
C1653      C1658   1.412       .  A
C1654      C1655   1.392       .  A
C1654      C1659   1.443       .  S
C1655      C1656   1.399       .  A
C1655      C1662   1.458       .  S
C1656      C1657   1.408       .  A
C1657      C1658   1.405       .  A
C1657      C1660   1.451       .  S
C1658      C1661   1.450       .  S
C1659      N1666   1.153       .  T
C1660      N1665   1.157       .  T
C1661      N1663   1.157       .  T
C1662      N1664   1.157       .  T
C1667      C1668   1.416       .  A
C1667      C1672   1.413       .  A
C1668      C1669   1.398       .  A
C1668      C1673   1.453       .  S
C1669      C1670   1.416       .  A
C1669      C1676   1.453       .  S
C1670      C1671   1.423       .  A
C1671      C1672   1.402       .  A
C1671      C1674   1.449       .  S
C1672      C1675   1.451       .  S
C1673      N1680   1.158       .  T
C1674      N1679   1.158       .  T
C1675      N1677   1.158       .  T
C1676      N1678   1.157       .  T
C1681      C1682   1.420       .  A
C1681      C1686   1.410       .  A
C1682      C1683   1.423       .  A
C1682      C1687   1.448       .  S
C1683      C1684   1.412       .  A
C1683      C1690   1.450       .  S
C1684      C1685   1.417       .  A
C1685      C1686   1.420       .  A
C1685      C1688   1.447       .  S
C1686      C1689   1.445       .  S
C1687      N1694   1.157       .  T
C1688      N1693   1.156       .  T
C1689      N1691   1.155       .  T
C1690      N1692   1.157       .  T
C1695      C1696   1.406       .  A
C1695      C1700   1.420       .  A
C1696      C1697   1.419       .  A
C1696      C1701   1.451       .  S
C1697      C1698   1.436       .  A
C1697      C1704   1.453       .  S
C1698      C1699   1.421       .  A
C1699      C1700   1.420       .  A
C1699      C1702   1.451       .  S
C1700      C1703   1.453       .  S
C1701      N1708   1.157       .  T
C1702      N1707   1.158       .  T
C1703      N1705   1.157       .  T
C1704      N1706   1.158       .  T
C1709      C1710   1.417       .  A
C1709      C1714   1.415       .  A
C1710      C1711   1.420       .  A
C1710      C1715   1.450       .  S
C1711      C1712   1.414       .  A
C1711      C1718   1.451       .  S
C1712      C1713   1.415       .  A
C1713      C1714   1.423       .  A
C1713      C1716   1.449       .  S
C1714      C1717   1.449       .  S
C1715      N1722   1.157   1_545  T
C1716      N1721   1.157       .  T
C1717      N1719   1.157       .  T
C1718      N1720   1.157       .  T
C1723      C1724   1.409       .  A
C1723      C1728   1.425       .  A
C1724      C1725   1.417       .  A
C1724      C1729   1.453       .  S
C1725      C1726   1.432       .  A
C1725      C1732   1.453       .  S
C1726      C1727   1.414       .  A
C1727      C1728   1.418       .  A
C1727      C1730   1.451       .  S
C1728      C1731   1.453       .  S
C1729      N1736   1.158       .  T
C1730      N1735   1.158       .  T
C1731      N1733   1.157       .  T
C1732      N1734   1.158       .  T
C1737      C1738   1.415       .  A
C1737      C1742   1.400       .  A
C1738      C1739   1.398       .  A
C1738      C1743   1.447       .  S
C1739      C1740   1.400       .  A
C1739      C1746   1.452       .  S
C1740      C1741   1.416       .  A
C1741      C1742   1.400       .  A
C1741      C1744   1.453       .  S
C1742      C1745   1.447       .  S
C1743      N1750   1.157       .  T
C1744      N1749   1.157       .  T
C1745      N1747   1.156       .  T
C1746      N1748   1.157       .  T
C1751      C1752   1.433       .  A
C1751      C1756   1.414       .  A
C1752      C1753   1.402       .  A
C1752      C1757   1.454       .  S
C1753      C1754   1.399       .  A
C1753      C1760   1.454       .  S
C1754      C1755   1.412       .  A
C1755      C1756   1.397       .  A
C1755      C1758   1.454       .  S
C1756      C1759   1.451       .  S
C1757      N1764   1.158       .  T
C1758      N1763   1.157       .  T
C1759      N1761   1.157       .  T
C1760      N1762   1.157       .  T
C1765      C1766   1.436       .  A
C1765      C1770   1.416       .  A
C1766      C1767   1.424       .  A
C1766      C1771   1.450       .  S
C1767      C1768   1.410       .  A
C1767      C1774   1.452       .  S
C1768      C1769   1.433       .  A
C1769      C1770   1.425       .  A
C1769      C1772   1.452       .  S
C1770      C1773   1.452       .  S
C1771      N1778   1.157       .  T
C1772      N1777   1.158       .  T
C1773      N1775   1.158       .  T
C1774      N1776   1.157       .  T
C1779      C1780   1.438       .  A
C1779      C1784   1.421       .  A
C1780      C1781   1.420       .  A
C1780      C1785   1.453       .  S
C1781      C1782   1.407       .  A
C1781      C1788   1.453       .  S
C1782      C1783   1.420       .  A
C1783      C1784   1.422       .  A
C1783      C1786   1.452       .  S
C1784      C1787   1.450       .  S
C1785      N1792   1.158       .  T
C1786      N1791   1.157       .  T
C1787      N1789   1.158       .  T
C1788      N1790   1.157       .  T
C1793      C1794   1.422       .  A
C1793      C1798   1.411       .  A
C1794      C1795   1.426       .  A
C1794      C1799   1.449       .  S
C1795      C1796   1.414       .  A
C1795      C1802   1.450       .  S
C1796      C1797   1.423       .  A
C1797      C1798   1.422       .  A
C1797      C1800   1.449       .  S
C1798      C1801   1.450       .  S
C1799      N1806   1.157       .  T
C1800      N1805   1.157   1_565  T
C1801      N1803   1.157       .  T
C1802      N1804   1.157       .  T
C1807      C1808   1.415       .  A
C1807      C1812   1.431       .  A
C1808      C1809   1.419       .  A
C1808      C1813   1.451       .  S
C1809      C1810   1.424       .  A
C1809      C1816   1.452       .  S
C1810      C1811   1.408       .  A
C1811      C1812   1.417       .  A
C1811      C1814   1.450       .  S
C1812      C1815   1.452       .  S
C1813      N1820   1.157       .  T
C1814      N1819   1.157       .  T
C1815      N1817   1.158       .  T
C1816      N1818   1.157       .  T
C1821      C1822   1.402       .  A
C1821      C1826   1.412       .  A
C1822      C1823   1.398       .  A
C1822      C1827   1.454       .  S
C1823      C1824   1.419       .  A
C1823      C1830   1.453       .  S
C1824      C1825   1.405       .  A
C1825      C1826   1.405       .  A
C1825      C1828   1.450       .  S
C1826      C1829   1.451       .  S
C1827      N1834   1.157       .  T
C1828      N1833   1.157       .  T
C1829      N1831   1.157       .  T
C1830      N1832   1.158       .  T
C1835      C1836   1.411       .  A
C1835      C1840   1.402       .  A
C1836      C1837   1.401       .  A
C1836      C1841   1.452       .  S
C1837      C1838   1.408       .  A
C1837      C1844   1.452       .  S
C1838      C1839   1.420       .  A
C1839      C1840   1.400       .  A
C1839      C1842   1.453       .  S
C1840      C1843   1.453       .  S
C1841      N1848   1.157       .  T
C1842      N1847   1.157       .  T
C1843      N1845   1.157       .  T
C1844      N1846   1.157       .  T
C1849      C1850   1.430       .  A
C1849      C1854   1.414       .  A
C1850      C1851   1.419       .  A
C1850      C1855   1.451       .  S
C1851      C1852   1.411       .  A
C1851      C1858   1.452       .  S
C1852      C1853   1.427       .  A
C1853      C1854   1.419       .  A
C1853      C1856   1.452       .  S
C1854      C1857   1.452       .  S
C1855      N1862   1.158       .  T
C1856      N1861   1.157       .  T
C1857      N1859   1.158       .  T
C1858      N1860   1.157       .  T
C1863      C1864   1.434       .  A
C1863      C1868   1.409       .  A
C1864      C1865   1.423       .  A
C1864      C1869   1.451       .  S
C1865      C1866   1.410       .  A
C1865      C1872   1.451       .  S
C1866      C1867   1.428       .  A
C1867      C1868   1.423       .  A
C1867      C1870   1.446       .  S
C1868      C1871   1.452       .  S
C1869      N1876   1.157       .  T
C1870      N1875   1.155       .  T
C1871      N1873   1.157       .  T
C1872      N1874   1.157       .  T
C1877      C1878   1.416       .  A
C1877      C1882   1.416       .  A
C1878      C1879   1.420       .  A
C1878      C1883   1.447       .  S
C1879      C1880   1.414       .  A
C1879      C1886   1.450       .  S
C1880      C1881   1.416       .  A
C1881      C1882   1.420       .  A
C1881      C1884   1.450       .  S
C1882      C1885   1.449       .  S
C1883      N1890   1.156       .  T
C1884      N1889   1.157       .  T
C1885      N1887   1.157       .  T
C1886      N1888   1.157       .  T
C1891      C1892   1.408       .  A
C1891      C1896   1.422       .  A
C1892      C1893   1.421       .  A
C1892      C1897   1.451       .  S
C1893      C1894   1.428       .  A
C1893      C1900   1.448       .  S
C1894      C1895   1.413       .  A
C1895      C1896   1.424       .  A
C1895      C1898   1.451       .  S
C1896      C1899   1.447       .  S
C1897      N1904   1.157       .  T
C1898      N1903   1.157       .  T
C1899      N1901   1.156       .  T
C1900      N1902   1.156   1_655  T
C1905      C1906   1.414       .  A
C1905      C1910   1.417       .  A
C1906      C1907   1.408       .  A
C1906      C1911   1.452       .  S
C1907      C1908   1.414       .  A
C1907      C1914   1.451       .  S
C1908      C1909   1.403       .  A
C1909      C1910   1.395       .  A
C1909      C1912   1.458       .  S
C1910      C1913   1.443       .  S
C1911      N1918   1.158       .  T
C1912      N1917   1.157       .  T
C1913      N1915   1.153       .  T
C1914      N1916   1.157       .  T
C1919      C1920   1.417       .  A
C1919      C1924   1.418       .  A
C1920      C1921   1.395       .  A
C1920      C1925   1.451       .  S
C1921      C1922   1.405       .  A
C1921      C1928   1.449       .  S
C1922      C1923   1.410       .  A
C1923      C1924   1.407       .  A
C1923      C1926   1.451       .  S
C1924      C1927   1.453       .  S
C1925      N1932   1.158       .  T
C1926      N1931   1.158       .  T
C1927      N1929   1.157       .  T
C1928      N1930   1.155       .  T
C1933      C1934   1.417       .  A
C1933      C1938   1.416       .  A
C1934      C1935   1.422       .  A
C1934      C1939   1.450       .  S
C1935      C1936   1.414       .  A
C1935      C1942   1.450       .  S
C1936      C1937   1.415       .  A
C1937      C1938   1.422       .  A
C1937      C1940   1.451       .  S
C1938      C1941   1.448       .  S
C1939      N1946   1.157   1_455  T
C1940      N1945   1.157       .  T
C1941      N1943   1.157       .  T
C1942      N1944   1.157       .  T
C1947      C1948   1.440       .  A
C1947      C1952   1.411       .  A
C1948      C1949   1.424       .  A
C1948      C1953   1.453       .  S
C1949      C1950   1.413       .  A
C1949      C1956   1.452       .  S
C1950      C1951   1.435       .  A
C1951      C1952   1.423       .  A
C1951      C1954   1.452       .  S
C1952      C1955   1.448       .  S
C1953      N1960   1.158       .  T
C1954      N1959   1.158       .  T
C1955      N1957   1.156       .  T
C1956      N1958   1.158       .  T
C1961      C1962   1.405       .  A
C1961      C1966   1.416       .  A
C1962      C1963   1.419       .  A
C1962      C1967   1.450       .  S
C1963      C1964   1.435       .  A
C1963      C1970   1.451       .  S
C1964      C1965   1.425       .  A
C1965      C1966   1.421       .  A
C1965      C1968   1.451       .  S
C1966      C1969   1.452       .  S
C1967      N1974   1.157       .  T
C1968      N1973   1.158       .  T
C1969      N1971   1.157       .  T
C1970      N1972   1.158       .  T
C1975      C1976   1.432       .  A
C1975      C1980   1.417       .  A
C1976      C1977   1.423       .  A
C1976      C1981   1.451       .  S
C1977      C1978   1.407       .  A
C1977      C1984   1.451       .  S
C1978      C1979   1.417       .  A
C1979      C1980   1.419       .  A
C1979      C1982   1.447       .  S
C1980      C1983   1.451       .  S
C1981      N1988   1.157       .  T
C1982      N1987   1.156       .  T
C1983      N1985   1.158       .  T
C1984      N1986   1.157       .  T
C1989      C1990   1.423       .  A
C1989      C1994   1.413       .  A
C1990      C1991   1.404       .  A
C1990      C1995   1.446       .  S
C1991      C1992   1.402       .  A
C1991      C1998   1.454       .  S
C1992      C1993   1.417       .  A
C1993      C1994   1.406       .  A
C1993      C1996   1.453       .  S
C1994      C1997   1.453       .  S
C1995      N2002   1.155       .  T
C1996      N2001   1.157       .  T
C1997      N1999   1.157       .  T
C1998      N2000   1.157       .  T
C2003      C2004   1.404       .  A
C2003      C2008   1.406       .  A
C2004      C2005   1.404       .  A
C2004      C2009   1.448       .  S
C2005      C2006   1.419       .  A
C2005      C2012   1.451       .  S
C2006      C2007   1.433       .  A
C2007      C2008   1.404       .  A
C2007      C2010   1.453       .  S
C2008      C2011   1.457       .  S
C2009      N2016   1.158       .  T
C2010      N2015   1.158       .  T
C2011      N2013   1.157       .  T
C2012      N2014   1.157       .  T
