geometry optimzed in LAMMPS
_audit_creation_date              2020-11-30 
_audit_creation_method            'lammps2cif' 
_symmetry_space_group_name_H-M    'P1' 
_symmetry_Int_Tables_number       1 
_symmetry_cell_setting            triclinic 
loop_ 
_symmetry_equiv_pos_as_xyz 
  x,y,z 
_cell_length_a                    29.53069327 
_cell_length_b                    69.06959346299368 
_cell_length_c                    28.46760714569576 
_cell_angle_alpha                 89.82915219610655 
_cell_angle_beta                  89.22908821956847 
_cell_angle_gamma                 89.83982373129398 
loop_ 
_atom_site_label 
_atom_site_type_symbol 
_atom_site_fract_x 
_atom_site_fract_y 
_atom_site_fract_z 
_atom_site_charge 
C1          C  0.32242563  0.34166753  0.48691972     0.81000
N2          N  0.30011373  0.35863164  0.47866620    -0.77300
C3          C  0.25410260  0.35925267  0.47893340     0.83400
N4          N  0.23074646  0.34285041  0.48847467    -0.77200
C5          C  0.25199503  0.32584409  0.49719731     0.83500
N6          N  0.29812450  0.32521585  0.49579628    -0.79000
C7          C  0.32476401  0.66337292  0.47378884     0.81000
N8          N  0.30161002  0.67986809  0.48493895    -0.77300
C9          C  0.25562035  0.67985871  0.48641597     0.83400
N10         N  0.23300556  0.66340511  0.47630950    -0.77200
C11         C  0.25535065  0.64693629  0.46464517     0.83500
N12         N  0.30140116  0.64695174  0.46369022    -0.79000
C13         C  0.66629731  0.66781101  0.45864422     0.81000
N14         N  0.68891720  0.68486400  0.46311902    -0.77300
C15         C  0.73471171  0.68545186  0.45762948     0.83400
N16         N  0.75775724  0.66885696  0.44822132    -0.77200
C17         C  0.73587612  0.65172412  0.44426307     0.83500
N18         N  0.69011312  0.65129244  0.44977864    -0.79000
O19         O  0.04027227  0.48366445  0.47872082    -0.72200
O20         O  0.94439971  0.52499246  0.47576222    -0.73100
O21         O  0.94408777  0.48369352  0.48022933    -0.61800
O22         O  0.04007066  0.52444974  0.47473200    -0.70200
O23         O  0.04026558  0.52344312  0.39685231    -0.69700
O24         O  0.94340226  0.48235308  0.40254916    -0.61000
O25         O  0.94472415  0.52388446  0.39796842    -0.73500
O26         O  0.03984608  0.48212933  0.40094500    -0.72300
Cu27       Cu  0.99207854  0.50421217  0.47998961     1.04600
Cu28       Cu  0.99196129  0.50286976  0.39682375     1.04300
C29         C  0.05549412  0.47645345  0.44033814     0.94000
C30         C  0.93035296  0.53140467  0.43636327     0.93200
C31         C  0.92882709  0.47631481  0.44250589     0.85300
C32         C  0.05512080  0.53052459  0.43511971     0.91600
C33         C  0.66637787  0.33955167  0.48463220     0.81000
N34         N  0.69024586  0.32282738  0.49140135    -0.77300
C35         C  0.73634367  0.32306241  0.49160020     0.83400
N36         N  0.75814664  0.34007873  0.48450307    -0.77200
C37         C  0.73535069  0.35684231  0.47748366     0.83500
N38         N  0.68927883  0.35648726  0.47765740    -0.79000
C39         C  0.99296116  0.19008823  0.59504595     0.87300
C40         C  0.03228855  0.20455518  0.59315150    -0.53000
C41         C  0.03577560  0.21482933  0.55219542     0.10200
C42         C  0.99884274  0.20965039  0.51646797     0.21100
C43         C  0.95105975  0.20270527  0.58458551    -0.53700
C44         C  0.95336473  0.21273028  0.54307581     0.10300
C45         C  0.99922467  0.17746508  0.55115772    -0.53200
C46         C  0.00277015  0.18760626  0.51002882     0.10900
H47         H  0.05559678  0.20641139  0.62198344     0.15400
H48         H  0.00187612  0.21774411  0.48297022     0.01100
H49         H  0.92305680  0.20473707  0.60894264     0.15700
H50         H  0.00006439  0.16175711  0.55271503     0.15500
C51         C  0.99634275  0.81181200  0.59379891     0.87300
C52         C  0.95558762  0.79808142  0.58886821    -0.53000
C53         C  0.95469017  0.78853304  0.54709636     0.10200
C54         C  0.99498264  0.79307984  0.51428827     0.21100
C55         C  0.03762568  0.79844364  0.58540765    -0.53700
C56         C  0.03730184  0.78883407  0.54352900     0.10300
C57         C  0.99488109  0.82495746  0.55042064    -0.53200
C58         C  0.99435485  0.81522088  0.50878434     0.10900
H59         H  0.93005279  0.79578131  0.61607977     0.15400
H60         H  0.99418887  0.78518561  0.48040381     0.01100
H61         H  0.06360476  0.79580558  0.61118286     0.15700
H62         H  0.99349781  0.84064191  0.55270395     0.15500
N63         N  0.02085827  0.10961773  0.12453647    -0.26500
N64         N  0.02104633  0.09302230  0.14769865    -0.34400
C65         C  0.02243609  0.09661012  0.19400112     0.01800
C66         C  0.02263187  0.11651920  0.20077859     0.07900
C67         C  0.02184237  0.12423589  0.15563954    -0.05200
H68         H  0.02295629  0.08535162  0.22037207     0.08500
H69         H  0.02118707  0.13937165  0.14590846     0.09700
Cu70       Cu  0.01728522  0.06608939  0.11615876     0.44200
Cu71       Cu  0.01828475  0.11158002  0.05172953     0.42000
Cu72       Cu  0.01190021  0.06610741  0.98969278     0.43900
N73         N  0.00922562  0.04126216  0.07652930    -0.33900
N74         N  0.00770098  0.04138475  0.03015618    -0.28100
C75         C  0.00255828  0.02319497  0.01470461    -0.04200
C76         C  0.00061648  0.01103570  0.05322637     0.08000
C77         C  0.00485028  0.02292450  0.09192333     0.01800
H78         H  0.00031500  0.01917917  0.97810744     0.09400
H79         H  0.00508446  0.01859779  0.12847390     0.08500
N80         N  0.01159272  0.09269218  0.95665699    -0.35300
N81         N  0.01377074  0.10935332  0.97913422    -0.27500
C82         C  0.01192440  0.12385625  0.94761825    -0.02800
C83         C  0.00812817  0.11593889  0.90303953     0.05800
C84         C  0.00826207  0.09610235  0.91035966     0.03900
H85         H  0.01342831  0.13899634  0.95684373     0.09000
H86         H  0.00536629  0.08488278  0.88412233     0.07900
N87         N  0.97897945  0.89089771  0.12129269    -0.26500
N88         N  0.98053312  0.90731960  0.14483227    -0.34400
C89         C  0.97958383  0.90344232  0.19103525     0.01800
C90         C  0.97746548  0.88356099  0.19711866     0.07900
C91         C  0.97690798  0.87608977  0.15194395    -0.05200
H92         H  0.98130048  0.91436633  0.21809492     0.08500
H93         H  0.97531137  0.86106259  0.14168094     0.09700
Cu94       Cu  0.98510792  0.93426354  0.11380716     0.44200
Cu95       Cu  0.98141221  0.88930057  0.04877369     0.42000
Cu96       Cu  0.99541066  0.93492023  0.98755751     0.43900
N97         N  0.99078474  0.95935542  0.07479933    -0.33900
N98         N  0.99433219  0.95958905  0.02848152    -0.28100
C99         C  0.99764607  0.97801813  0.01370739    -0.04200
C100        C  0.99634158  0.98989752  0.05268185     0.08000
C101        C  0.99196070  0.97762228  0.09084956     0.01800
H102        H  0.00132169  0.98238219  0.97733181     0.09400
H103        H  0.99001490  0.98161050  0.12754625     0.08500
N104        N  0.99376738  0.90838090  0.95429489    -0.35300
N105        N  0.98801692  0.89174500  0.97658392    -0.27500
C106        C  0.98751271  0.87733714  0.94500282    -0.02800
C107        C  0.99323571  0.88529841  0.90061773     0.05800
C108        C  0.99733754  0.90501206  0.90793360     0.03900
H109        H  0.98364922  0.86220007  0.95393704     0.09000
H110        H  0.00179854  0.91615206  0.88150816     0.07900
C111        C  0.96963425  0.84884672  0.80493213    -0.27400
C112        C  0.99628602  0.85605331  0.76773119     0.06200
C113        C  0.02159563  0.87300278  0.77420140     0.25800
C114        C  0.02034303  0.88247321  0.81751357    -0.11900
C115        C  0.99416961  0.87511142  0.85506011    -0.25900
C116        C  0.96861002  0.85820346  0.84831179     0.36600
C117        C  0.99703272  0.84574920  0.72239927     0.06200
F118        F  0.04673577  0.88059328  0.73840943    -0.19600
H119        H  0.04021760  0.89548794  0.82180788     0.16000
F120        F  0.94148394  0.85102032  0.88299776    -0.23400
H121        H  0.94970643  0.83585274  0.80036346     0.17800
C122        C  0.03781657  0.83893113  0.70275374     0.25800
C123        C  0.03757613  0.82810010  0.66143895    -0.11900
C124        C  0.99657173  0.82357448  0.63908817    -0.25900
C125        C  0.95614934  0.83180285  0.65727062     0.36700
C126        C  0.95639829  0.84230891  0.69908027    -0.27500
F127        F  0.07785229  0.84237999  0.72403352    -0.19700
H128        H  0.06989617  0.82362595  0.64692515     0.16000
F129        F  0.91630915  0.82995026  0.63453014    -0.23400
H130        H  0.92478554  0.84799007  0.71309812     0.17800
C131        C  0.99520744  0.84420591  0.28856679    -0.27400
C132        C  0.98218323  0.85385399  0.32979592     0.06200
C133        C  0.96672876  0.87303688  0.32727982     0.25800
C134        C  0.96448079  0.88242797  0.28390498    -0.08900
C135        C  0.97807135  0.87293167  0.24237349    -0.25900
C136        C  0.99350430  0.85362949  0.24517648     0.36600
C137        C  0.98549034  0.84390959  0.37541306     0.06200
F138        F  0.95329954  0.88257804  0.36672398    -0.19600
H139        H  0.95195817  0.89717089  0.28295636     0.16000
F140        F  0.00873615  0.84402579  0.20658964    -0.23400
H141        H  0.00770416  0.82944962  0.29018789     0.17800
C142        C  0.96069453  0.82696786  0.38439756     0.25800
C143        C  0.96394247  0.81767605  0.42782841    -0.11900
C144        C  0.99214612  0.82508470  0.46271733    -0.25900
C145        C  0.01765221  0.84188013  0.45328412     0.36700
C146        C  0.01400900  0.85126180  0.41000042    -0.27500
F147        F  0.93254394  0.81971455  0.35155102    -0.19700
H148        H  0.94368300  0.80488388  0.43449977     0.16000
F149        F  0.04701999  0.84891069  0.48526191    -0.23400
H150        H  0.03392163  0.86414632  0.40314108     0.17800
C151        C  0.98514039  0.15489335  0.81178200    -0.27400
C152        C  0.99775285  0.14549740  0.76995014     0.06200
C153        C  0.01316404  0.12624182  0.77205345     0.25800
C154        C  0.01636010  0.11675028  0.81536040    -0.11900
C155        C  0.00416793  0.12621929  0.85739343    -0.25900
C156        C  0.98792942  0.14538784  0.85500524     0.36600
C157        C  0.99520867  0.15604011  0.72459495     0.06200
F158        F  0.02437809  0.11648934  0.73220928    -0.19600
H159        H  0.02883123  0.10200398  0.81588617     0.16000
F160        F  0.97354501  0.15489761  0.89406842    -0.23400
H161        H  0.97331257  0.16974969  0.81104075     0.17800
C162        C  0.95595283  0.16632493  0.71250212     0.25800
C163        C  0.95460217  0.17707709  0.67093905    -0.11900
C164        C  0.99249506  0.17802143  0.64029515    -0.25900
C165        C  0.03132732  0.16711801  0.65209558     0.36700
C166        C  0.03261454  0.15639039  0.69376604    -0.27500
F167        F  0.91848214  0.16573995  0.74063574    -0.19700
H168        H  0.92306581  0.18439049  0.66344878     0.16000
F169        F  0.06844362  0.16700845  0.62341607    -0.23400
H170        H  0.06337987  0.14863081  0.70243462     0.17800
C171        C  0.04058428  0.15256645  0.41455331    -0.27400
C172        C  0.01636644  0.15939598  0.37578512     0.06200
C173        C  0.98881141  0.17590872  0.38096116     0.25800
C174        C  0.98513593  0.18518660  0.42450288    -0.11900
C175        C  0.00872615  0.17814008  0.46355826    -0.25900
C176        C  0.03713028  0.16187261  0.45796491     0.36600
C177        C  0.01850514  0.14860703  0.33091394     0.06200
F178        F  0.96397963  0.18256533  0.34449746    -0.19600
H179        H  0.96270572  0.19754239  0.42799820     0.16000
F180        F  0.06221944  0.15513577  0.49414915    -0.23400
H181        H  0.06230115  0.13997155  0.41110600     0.17800
C182        C  0.03116286  0.15772030  0.28859502     0.25800
C183        C  0.03285537  0.14716583  0.24668829    -0.11900
C184        C  0.02173131  0.12734560  0.24602009    -0.25900
C185        C  0.00904848  0.11831602  0.28876309     0.36700
C186        C  0.00783345  0.12885449  0.33056856    -0.27500
F187        F  0.04282850  0.17671545  0.28794585    -0.19700
H188        H  0.04326193  0.15457680  0.21480384     0.16000
F189        F  0.99632398  0.09948903  0.29052150    -0.23400
H190        H  0.99764167  0.12162132  0.36284021     0.17800
C191        C  0.83605846  0.29012127  0.51637193    -0.27400
C192        C  0.81947200  0.27181458  0.50445799     0.06200
C193        C  0.77368589  0.27011567  0.49167296     0.25800
C194        C  0.74603369  0.28669671  0.48882515    -0.11900
C195        C  0.76359025  0.30515806  0.49871037    -0.25900
C196        C  0.80883150  0.30654206  0.51352138     0.36600
C197        C  0.85080268  0.25492743  0.50696537     0.06200
F198        F  0.75612854  0.25261756  0.48043930    -0.19600
H199        H  0.71133789  0.28515525  0.47759188     0.16000
F200        F  0.82709718  0.32378505  0.52576491    -0.23400
H201        H  0.87055733  0.29175623  0.52819430     0.17800
C202        C  0.89514612  0.25634181  0.48849844     0.25800
C203        C  0.92775737  0.24239430  0.49932126    -0.11900
C204        C  0.91672581  0.22626787  0.52737287    -0.25900
C205        C  0.87094171  0.22385526  0.54165348     0.36700
C206        C  0.83870094  0.23822727  0.53221929    -0.27500
F207        F  0.90738638  0.27162624  0.46109556    -0.19700
H208        H  0.96212936  0.24484698  0.48715100     0.16000
F209        F  0.85698902  0.20773087  0.56495153    -0.23400
H210        H  0.80464308  0.23661657  0.54631734     0.17800
C211        C  0.84916051  0.43525948  0.40958489    -0.27400
C212        C  0.83660607  0.42811467  0.45401368     0.06200
C213        C  0.85262848  0.43731605  0.49430097     0.25800
C214        C  0.88146582  0.45327550  0.49016636    -0.11900
C215        C  0.89515663  0.46032784  0.44571470    -0.25900
C216        C  0.87805125  0.45126400  0.40528038     0.36600
C217        C  0.80999755  0.41010766  0.45835448     0.06200
F218        F  0.84146840  0.43046490  0.53766291    -0.19600
H219        H  0.89392106  0.45982151  0.52196888     0.16000
F220        F  0.88990067  0.45750757  0.36158368    -0.23400
H221        H  0.83727579  0.42816857  0.37821323     0.17800
C222        C  0.76271158  0.41051592  0.46388982     0.25800
C223        C  0.73844003  0.39320350  0.46957245    -0.11900
C224        C  0.76103531  0.37520965  0.47012912    -0.25900
C225        C  0.80870587  0.37502912  0.46423248     0.36700
C226        C  0.83263551  0.39230476  0.45840813    -0.27500
F227        F  0.74015125  0.42765742  0.46414616    -0.19700
H228        H  0.70201959  0.39392735  0.47407162     0.16000
F229        F  0.83263869  0.35822611  0.46393274    -0.23400
H230        H  0.86914493  0.39181484  0.45428902     0.17800
C231        C  0.82961105  0.72192032  0.45344793    -0.27400
C232        C  0.81807476  0.73404555  0.49120845     0.06200
C233        C  0.77591320  0.73163328  0.51404576     0.25800
C234        C  0.74720436  0.71646788  0.50102271    -0.11900
C235        C  0.76036667  0.70350556  0.46533279    -0.25900
C236        C  0.80117553  0.70680138  0.44057554     0.36600
C237        C  0.85186741  0.74812691  0.50813009     0.06200
F238        F  0.76387303  0.74309090  0.55082575    -0.19600
H239        H  0.71599214  0.71419013  0.52062796     0.16000
F240        F  0.81412142  0.69512772  0.40451578    -0.23400
H241        H  0.86147840  0.72383425  0.43476195     0.17800
C242        C  0.89546010  0.74170636  0.52025278     0.25800
C243        C  0.92848237  0.75494727  0.53355095    -0.11900
C244        C  0.91867815  0.77475747  0.53496667    -0.25900
C245        C  0.87488358  0.78124939  0.52417938     0.36700
C246        C  0.84162061  0.76797089  0.51088006    -0.27500
F247        F  0.90594361  0.72255772  0.51965584    -0.19700
H248        H  0.96162744  0.74971157  0.54317394     0.16000
F249        F  0.86475466  0.80042518  0.52535670    -0.23400
H250        H  0.80829544  0.77318809  0.50162748     0.17800
C251        C  0.84613352  0.57031351  0.47379516    -0.27400
C252        C  0.84282226  0.58145542  0.43261219     0.06200
C253        C  0.86766631  0.57575683  0.39246345     0.25800
C254        C  0.89505135  0.55919992  0.39365719    -0.11900
C255        C  0.89871603  0.54812126  0.43499830    -0.25900
C256        C  0.87380126  0.55385700  0.47515737     0.36600
C257        C  0.81424515  0.59918661  0.43235495     0.06200
F258        F  0.86517725  0.58608533  0.35192895    -0.19600
H259        H  0.91412845  0.55526986  0.36235545     0.16000
F260        F  0.87603565  0.54360244  0.51580847    -0.23400
H261        H  0.82782591  0.57457043  0.50532813     0.17800
C262        C  0.76928998  0.59874321  0.44929376     0.25800
C263        C  0.74352926  0.61574776  0.45155253    -0.11900
C264        C  0.76212242  0.63357348  0.43733903    -0.25900
C265        C  0.80671012  0.63389100  0.41896995     0.36700
C266        C  0.83237990  0.61686224  0.41662893    -0.27500
F267        F  0.75022838  0.58184378  0.46370207    -0.19700
H268        H  0.70936251  0.61501014  0.46568717     0.16000
F269        F  0.82571513  0.65062616  0.40334078    -0.23400
H270        H  0.86693979  0.61758199  0.40358013     0.17800
C271        C  0.44742065  0.65058262  0.44537580    -0.27400
C272        C  0.47067223  0.66376068  0.47365748     0.06200
C273        C  0.44575100  0.67648641  0.50251986     0.25800
C274        C  0.39841564  0.67626041  0.50232374    -0.11900
C275        C  0.37497519  0.66325079  0.47364329    -0.25900
C276        C  0.40002283  0.65028028  0.44526839     0.36600
C277        C  0.52077136  0.66479088  0.47132391     0.06200
F278        F  0.46725366  0.68897478  0.53135869    -0.19600
H279        H  0.38005372  0.68619683  0.52500895     0.16000
F280        F  0.37886812  0.63778241  0.41616971    -0.23400
H281        H  0.46606032  0.64081861  0.42247212     0.17800
C282        C  0.54760120  0.64831191  0.47932871     0.25800
C283        C  0.59481695  0.64945410  0.47551315    -0.11900
C284        C  0.61621102  0.66703817  0.46374144    -0.25900
C285        C  0.58915395  0.68355057  0.45601969     0.36700
C286        C  0.54197634  0.68237090  0.45984872    -0.27500
F287        F  0.52818073  0.63120057  0.49156893    -0.19700
H288        H  0.61468523  0.63653852  0.48203695     0.16000
F289        F  0.60799919  0.70070180  0.44320609    -0.23400
H290        H  0.52180250  0.69516563  0.45291426     0.17800
C291        C  0.15141692  0.76357411  0.53111334    -0.27400
C292        C  0.13862368  0.74582523  0.51162494     0.06200
C293        C  0.09337069  0.74309504  0.49847312     0.25800
C294        C  0.06109320  0.75750144  0.50700157    -0.11900
C295        C  0.07310709  0.77476508  0.52943232    -0.25900
C296        C  0.11900394  0.77796983  0.53997000     0.36600
C297        C  0.17140594  0.72964577  0.50816773     0.06200
F298        F  0.08022764  0.72631237  0.47808438    -0.19600
H299        H  0.02643397  0.75477718  0.49748792     0.16000
F300        F  0.13259771  0.79498026  0.55883149    -0.23400
H301        H  0.18620289  0.76601491  0.54102244     0.17800
C302        C  0.21293562  0.73153584  0.48378768     0.25800
C303        C  0.24184656  0.71550504  0.47881390    -0.11900
C304        C  0.22942181  0.69746365  0.49781954    -0.25900
C305        C  0.18894357  0.69591918  0.52410478     0.36700
C306        C  0.16037906  0.71187164  0.52923560    -0.27500
F307        F  0.22437845  0.74853731  0.46281926    -0.19700
H308        H  0.27276085  0.71694030  0.45823620     0.16000
F309        F  0.17674140  0.67888823  0.54451579    -0.23400
H310        H  0.12912695  0.71028284  0.54920142     0.17800
C311        C  0.15780931  0.61339712  0.43679861    -0.27400
C312        C  0.17813621  0.59514159  0.44126705     0.06200
C313        C  0.22465451  0.59396198  0.45086052     0.25800
C314        C  0.24996433  0.61084036  0.45720306    -0.11900
C315        C  0.22926830  0.62915590  0.45438157    -0.25900
C316        C  0.18287162  0.63024166  0.44330724     0.36600
C317        C  0.14985064  0.57756516  0.43756376     0.06200
F318        F  0.24560137  0.57650066  0.45400279    -0.19600
H319        H  0.28555883  0.60953726  0.46537284     0.16000
F320        F  0.16141301  0.64754517  0.43877995    -0.23400
H321        H  0.12202136  0.61460870  0.42934453     0.17800
C322        C  0.14818795  0.56396162  0.47435314     0.25800
C323        C  0.11811497  0.54842188  0.47261215    -0.11900
C324        C  0.08930581  0.54609408  0.43417429    -0.25900
C325        C  0.09165273  0.55947005  0.39685348     0.36700
C326        C  0.12154253  0.57511203  0.39877678    -0.27500
F327        F  0.17389207  0.56624296  0.51311302    -0.19700
H328        H  0.11679255  0.53834970  0.50185289     0.16000
F329        F  0.06350290  0.55803131  0.35972665    -0.23400
H330        H  0.12206468  0.58555419  0.37029012     0.17800
C331        C  0.54315849  0.32442815  0.50385996    -0.27400
C332        C  0.51955628  0.34000987  0.48366772     0.06200
C333        C  0.54469953  0.35537365  0.46388937     0.25800
C334        C  0.59211962  0.35509844  0.46453658    -0.11900
C335        C  0.61583439  0.33946618  0.48448694    -0.25900
C336        C  0.59063187  0.32406157  0.50419582     0.36600
C337        C  0.46895826  0.34032620  0.48416942     0.06200
F338        F  0.52351125  0.37049825  0.44289326    -0.19600
H339        H  0.61031332  0.36711671  0.44876767     0.16000
F340        F  0.61161048  0.30881750  0.52488441    -0.23400
H341        H  0.52475087  0.31259634  0.52019183     0.17800
C342        C  0.44373704  0.32393879  0.47117078     0.25800
C343        C  0.39624531  0.32437576  0.47269051    -0.11900
C344        C  0.37280062  0.34122087  0.48637705    -0.25900
C345        C  0.39801922  0.35763476  0.49913454     0.36700
C346        C  0.44542980  0.35708911  0.49832877    -0.27500
F347        F  0.46493776  0.30765023  0.45574707    -0.19700
H348        H  0.37774526  0.31161056  0.46220803     0.16000
F349        F  0.37695627  0.37409245  0.51370003    -0.23400
H350        H  0.46383474  0.36977946  0.50946371     0.17800
C351        C  0.12651583  0.24672286  0.49521201    -0.27400
C352        C  0.13710784  0.25920907  0.53233536     0.06200
C353        C  0.11501796  0.25671093  0.57595898     0.25800
C354        C  0.08243700  0.24226375  0.58197959    -0.11900
C355        C  0.07098215  0.22998095  0.54469061    -0.25900
C356        C  0.09364848  0.23224939  0.50118449     0.36600
C357        C  0.16804299  0.27585707  0.52459553     0.06200
F358        F  0.12486339  0.26833725  0.61279533    -0.19600
H359        H  0.06546521  0.24093952  0.61578494     0.16000
F360        F  0.08478595  0.22029879  0.46472137    -0.23400
H361        H  0.14295729  0.24849214  0.46124190     0.17800
C362        C  0.21277528  0.27343769  0.50786241     0.25800
C363        C  0.24066871  0.28963470  0.50012652    -0.11900
C364        C  0.22411950  0.30846831  0.50833232    -0.25900
C365        C  0.17943840  0.31068689  0.52583504     0.36700
C366        C  0.15200362  0.29458438  0.53376525    -0.27500
F367        F  0.22956280  0.25544780  0.49950102    -0.19700
H368        H  0.27481370  0.28746996  0.48679947     0.16000
F369        F  0.16199351  0.32844025  0.53575720    -0.23400
H370        H  0.11767021  0.29677961  0.54658135     0.17800
C371        C  0.15880529  0.39406922  0.44946253    -0.27400
C372        C  0.17987778  0.41212251  0.45358116     0.06200
C373        C  0.22594988  0.41280218  0.46549128     0.25800
C374        C  0.25030705  0.39561028  0.47291969    -0.11900
C375        C  0.22897654  0.37748920  0.46924476    -0.25900
C376        C  0.18279741  0.37696859  0.45711699     0.36600
C377        C  0.15246798  0.42995374  0.44723425     0.06200
F378        F  0.24745659  0.43004546  0.46953546    -0.19600
H379        H  0.28565122  0.39650275  0.48226271     0.16000
F380        F  0.16047319  0.35995126  0.45228325    -0.23400
H381        H  0.12321644  0.39319832  0.44103709     0.17800
C382        C  0.12482584  0.43221654  0.40768253     0.25800
C383        C  0.09450628  0.44775189  0.40489442    -0.11900
C384        C  0.09080365  0.46120150  0.44166018    -0.25900
C385        C  0.11996053  0.45943553  0.48021778     0.36700
C386        C  0.15050998  0.44395590  0.48283670    -0.27500
F387        F  0.12658161  0.41918430  0.37209134    -0.19700
H388        H  0.07277461  0.44886428  0.37466354     0.16000
F389        F  0.11874250  0.47256530  0.51560063    -0.23400
H390        H  0.17137781  0.44248294  0.51363142     0.17800
loop_ 
_geom_bond_atom_site_label_1 
_geom_bond_atom_site_label_2 
_geom_bond_distance 
_geom_bond_site_symmetry_2 
_ccdc_geom_bond_type 
C1            N2   1.364       .  A
C1            N6   1.367       .  A
C1          C344   1.488       .  S
N2            C3   1.359       .  A
C3            N4   1.353       .  A
C3          C375   1.487       .  S
N4            C5   1.354       .  A
C5            N6   1.363       .  A
C5          C364   1.488       .  S
C7            N8   1.363       .  A
C7           N12   1.363       .  A
C7          C275   1.483       .  S
N8            C9   1.358       .  A
C9           N10   1.353       .  A
C9          C304   1.474       .  S
N10          C11   1.353       .  A
C11          N12   1.360       .  A
C11         C315   1.483       .  S
C13          N14   1.363       .  A
C13          N18   1.361       .  A
C13         C284   1.485       .  S
N14          C15   1.360       .  A
C15          N16   1.357       .  A
C15         C235   1.479       .  S
N16          C17   1.356       .  A
C17          N18   1.359       .  A
C17         C264   1.484       .  S
O19         Cu27   2.007   1_455  S
O19          C29   1.278       .  A
O20         Cu27   2.012       .  S
O20          C30   1.279       .  A
O21         Cu27   2.007       .  S
O21          C31   1.278       .  A
O22         Cu27   1.997   1_455  S
O22          C32   1.277       .  A
O23         Cu28   2.016   1_455  S
O23          C32   1.279       .  A
O24         Cu28   2.024       .  S
O24          C31   1.280       .  A
O25         Cu28   2.010       .  S
O25          C30   1.278       .  A
O26         Cu28   2.014   1_455  S
O26          C29   1.279       .  A
Cu27        Cu28   2.370       .  S
C29         C384   1.481       .  S
C30         C255   1.484       .  S
C31         C215   1.490       .  S
C32         C324   1.477       .  S
C33          N34   1.366       .  A
C33          N38   1.365       .  A
C33         C335   1.493       .  S
N34          C35   1.362       .  A
C35          N36   1.355       .  A
C35         C195   1.488       .  S
N36          C37   1.353       .  A
C37          N38   1.361       .  A
C37         C224   1.493       .  S
C39          C40   1.534   1_655  S
C39          C45   1.535       .  S
C39          C43   1.543       .  S
C39         C164   1.532       .  S
C40          H47   1.086       .  S
C40          C41   1.366       .  D
C41          C42   1.545   1_455  S
C41         C355   1.490       .  S
C42          C46   1.538   1_655  S
C42          C44   1.547       .  S
C42          H48   1.107   1_655  S
C43          H49   1.081       .  S
C43          C44   1.369       .  D
C44         C204   1.500       .  S
C45          H50   1.086   1_655  S
C45          C46   1.366   1_655  D
C46         C175   1.486       .  S
C51          C52   1.542       .  S
C51          C57   1.532       .  S
C51          C55   1.544   1_655  S
C51         C124   1.526       .  S
C52          H59   1.085       .  S
C52          C53   1.362       .  D
C53          C54   1.535       .  S
C53         C244   1.474       .  S
C54          C58   1.537       .  S
C54          C56   1.538   1_655  S
C54          H60   1.110       .  S
C55          H61   1.083       .  S
C55          C56   1.366       .  D
C56         C295   1.486       .  S
C57          H62   1.086       .  S
C57          C58   1.365       .  D
C58         C144   1.478       .  S
N63          C67   1.346       .  A
N63          N64   1.321       .  A
N63         Cu71   2.079       .  S
N64          C65   1.343       .  A
N64         Cu70   2.072       .  S
C65          C66   1.389       .  A
C65          H68   1.079       .  S
C66         C184   1.491       .  S
C66          C67   1.390       .  A
C67          H69   1.081       .  S
Cu70         N73   2.071       .  S
Cu71         N81   2.079   1_554  S
Cu72         N74   2.060   1_556  S
Cu72         N80   2.061       .  S
N73          C77   1.345       .  A
N73          N74   1.322       .  A
N74          C75   1.342       .  A
C75          C76   1.380       .  A
C75          H78   1.082   1_554  S
C76         C100   1.466   1_445  S
C76          C77   1.383       .  A
C77          H79   1.082       .  S
N80          C84   1.343       .  A
N80          N81   1.321       .  A
N81          C82   1.344       .  A
C82          C83   1.389       .  A
C82          H85   1.080       .  S
C83         C155   1.485       .  S
C83          C84   1.385       .  A
C84          H86   1.082       .  S
N87          C91   1.343       .  A
N87          N88   1.320       .  A
N87         Cu95   2.068       .  S
N88          C89   1.341       .  A
N88         Cu94   2.062       .  S
C89          C90   1.385       .  A
C89          H92   1.082       .  S
C90         C135   1.481       .  S
C90          C91   1.387       .  A
C91          H93   1.080       .  S
Cu94         N97   2.062       .  S
Cu95        N105   2.068   1_554  S
Cu96         N98   2.067   1_556  S
Cu96        N104   2.067       .  S
N97         C101   1.344       .  A
N97          N98   1.321       .  A
N98          C99   1.343       .  A
C99         C100   1.382       .  A
C99         H102   1.082   1_654  S
C100        C101   1.381       .  A
C101        H103   1.082       .  S
N104        C108   1.344       .  A
N104        N105   1.321       .  A
N105        C106   1.343       .  A
C106        C107   1.385       .  A
C106        H109   1.081       .  S
C107        C115   1.477       .  S
C107        C108   1.384       .  A
C108        H110   1.082   1_655  S
C111        C112   1.402       .  A
C111        C116   1.395       .  A
C111        H121   1.084       .  S
C112        C117   1.475       .  S
C112        C113   1.405   1_655  A
C113        C114   1.397       .  A
C113        F118   1.358       .  S
C114        C115   1.405   1_455  A
C114        H119   1.083       .  S
C115        C116   1.407       .  A
C116        F120   1.357       .  S
C117        C122   1.402   1_655  A
C117        C126   1.400       .  A
C122        C123   1.396       .  A
C122        F127   1.358       .  S
C123        C124   1.412   1_455  A
C123        H128   1.080       .  S
C124        C125   1.413       .  A
C125        C126   1.396       .  A
C125        F129   1.357       .  S
C126        H130   1.083       .  S
C131        C132   1.400       .  A
C131        C136   1.396       .  A
C131        H141   1.084   1_655  S
C132        C137   1.472       .  S
C132        C133   1.402       .  A
C133        C134   1.395       .  A
C133        F138   1.358       .  S
C134        C135   1.407       .  A
C134        H139   1.083       .  S
C135        C136   1.410       .  A
C136        F140   1.356   1_655  S
C137        C142   1.403       .  A
C137        C146   1.402   1_655  A
C142        C143   1.396       .  A
C142        F147   1.357       .  S
C143        C144   1.403       .  A
C143        H148   1.083       .  S
C144        C145   1.408   1_655  A
C145        C146   1.396       .  A
C145        F149   1.358       .  S
C146        H150   1.084       .  S
C151        C152   1.403       .  A
C151        C156   1.396       .  A
C151        H161   1.083       .  S
C152        C157   1.483       .  S
C152        C153   1.406   1_655  A
C153        C154   1.399       .  A
C153        F158   1.358       .  S
C154        C155   1.407       .  A
C154        H159   1.082       .  S
C155        C156   1.409   1_455  A
C156        F160   1.356       .  S
C157        C162   1.404       .  A
C157        C166   1.402   1_655  A
C162        C163   1.396       .  A
C162        F167   1.358       .  S
C163        C164   1.411       .  A
C163        H168   1.082       .  S
C164        C165   1.414   1_655  A
C165        C166   1.398       .  A
C165        F169   1.358       .  S
C166        H170   1.084       .  S
C171        C172   1.403       .  A
C171        C176   1.397       .  A
C171        H181   1.083       .  S
C172        C177   1.481       .  S
C172        C173   1.406   1_455  A
C173        C174   1.400       .  A
C173        F178   1.357       .  S
C174        C175   1.405   1_655  A
C174        H179   1.083       .  S
C175        C176   1.408       .  A
C176        F180   1.357       .  S
C177        C182   1.404       .  A
C177        C186   1.401       .  A
C182        C183   1.400       .  A
C182        F187   1.357       .  S
C183        C184   1.409       .  A
C183        H188   1.082       .  S
C184        C185   1.412       .  A
C185        C186   1.397       .  A
C185        F189   1.355   1_455  S
C186        H190   1.084   1_455  S
C191        C192   1.402       .  A
C191        C196   1.391       .  A
C191        H201   1.084       .  S
C192        C197   1.489       .  S
C192        C193   1.410       .  A
C193        C194   1.407       .  A
C193        F198   1.357       .  S
C194        C195   1.408       .  A
C194        H199   1.083       .  S
C195        C196   1.410       .  A
C196        F200   1.357       .  S
C197        C202   1.408       .  A
C197        C206   1.402       .  A
C202        C203   1.397       .  A
C202        F207   1.358       .  S
C203        C204   1.405       .  A
C203        H208   1.082       .  S
C204        C205   1.417       .  A
C205        C206   1.401       .  A
C205        F209   1.357       .  S
C206        H210   1.084       .  S
C211        C212   1.402       .  A
C211        C216   1.402       .  A
C211        H221   1.083       .  S
C212        C217   1.477       .  S
C212        C213   1.401       .  A
C213        C214   1.399       .  A
C213        F218   1.357       .  S
C214        C215   1.409       .  A
C214        H219   1.082       .  S
C215        C216   1.412       .  A
C216        F220   1.357       .  S
C217        C222   1.403       .  A
C217        C226   1.398       .  A
C222        C223   1.404       .  A
C222        F227   1.357       .  S
C223        C224   1.409       .  A
C223        H228   1.082       .  S
C224        C225   1.415       .  A
C225        C226   1.397       .  A
C225        F229   1.357       .  S
C226        H230   1.083       .  S
C231        C232   1.402       .  A
C231        C236   1.395       .  A
C231        H241   1.083       .  S
C232        C237   1.482       .  S
C232        C233   1.407       .  A
C233        C234   1.403       .  A
C233        F238   1.357       .  S
C234        C235   1.406       .  A
C234        H239   1.083       .  S
C235        C236   1.407       .  A
C236        F240   1.357       .  S
C237        C242   1.407       .  A
C237        C246   1.405       .  A
C242        C243   1.396       .  A
C242        F247   1.358       .  S
C243        C244   1.398       .  A
C243        H248   1.081       .  S
C244        C245   1.405       .  A
C245        C246   1.402       .  A
C245        F249   1.357       .  S
C246        H250   1.083       .  S
C251        C252   1.405       .  A
C251        C256   1.399       .  A
C251        H261   1.083       .  S
C252        C257   1.485       .  S
C252        C253   1.406       .  A
C253        C254   1.399       .  A
C253        F258   1.358       .  S
C254        C255   1.407       .  A
C254        H259   1.083       .  S
C255        C256   1.408       .  A
C256        F260   1.357       .  S
C257        C262   1.407       .  A
C257        C266   1.404       .  A
C262        C263   1.399       .  A
C262        F267   1.357       .  S
C263        C264   1.406       .  A
C263        H268   1.082       .  S
C264        C265   1.410       .  A
C265        C266   1.399       .  A
C265        F269   1.358       .  S
C266        H270   1.083       .  S
C271        C272   1.404       .  A
C271        C276   1.400       .  A
C271        H281   1.083       .  S
C272        C277   1.482       .  S
C272        C273   1.405       .  A
C273        C274   1.398       .  A
C273        F278   1.357       .  S
C274        C275   1.406       .  A
C274        H279   1.083       .  S
C275        C276   1.410       .  A
C276        F280   1.358       .  S
C277        C282   1.405       .  A
C277        C286   1.403       .  A
C282        C283   1.400       .  A
C282        F287   1.358       .  S
C283        C284   1.408       .  A
C283        H288   1.083       .  S
C284        C285   1.409       .  A
C285        C286   1.399       .  A
C285        F289   1.357       .  S
C286        H290   1.084       .  S
C291        C292   1.402       .  A
C291        C296   1.399       .  A
C291        H301   1.083       .  S
C292        C297   1.479       .  S
C292        C293   1.406       .  A
C293        C294   1.396       .  A
C293        F298   1.358       .  S
C294        C295   1.403       .  A
C294        H299   1.079       .  S
C295        C296   1.410       .  A
C296        F300   1.357       .  S
C297        C302   1.407       .  A
C297        C306   1.402       .  A
C302        C303   1.403       .  A
C302        F307   1.357       .  S
C303        C304   1.405       .  A
C303        H308   1.083       .  S
C304        C305   1.406       .  A
C305        C306   1.393       .  A
C305        F309   1.358       .  S
C306        H310   1.083       .  S
C311        C312   1.401       .  A
C311        C316   1.395       .  A
C311        H321   1.084       .  S
C312        C317   1.480       .  S
C312        C313   1.406       .  A
C313        C314   1.400       .  A
C313        F318   1.357       .  S
C314        C315   1.406       .  A
C314        H319   1.083       .  S
C315        C316   1.412       .  A
C316        F320   1.358       .  S
C317        C322   1.405       .  A
C317        C326   1.405       .  A
C322        C323   1.396       .  A
C322        F327   1.357       .  S
C323        C324   1.405       .  A
C323        H328   1.084       .  S
C324        C325   1.407       .  A
C325        C326   1.399       .  A
C325        F329   1.357       .  S
C326        H330   1.084       .  S
C331        C332   1.406       .  A
C331        C336   1.402       .  A
C331        H341   1.083       .  S
C332        C337   1.494       .  S
C332        C333   1.409       .  A
C333        C334   1.401       .  A
C333        F338   1.357       .  S
C334        C335   1.408       .  A
C334        H339   1.083       .  S
C335        C336   1.411       .  A
C336        F340   1.357       .  S
C337        C342   1.410       .  A
C337        C346   1.406       .  A
C342        C343   1.403       .  A
C342        F347   1.357       .  S
C343        C344   1.406       .  A
C343        H348   1.083       .  S
C344        C345   1.409       .  A
C345        C346   1.400       .  A
C345        F349   1.358       .  S
C346        H350   1.083       .  S
C351        C352   1.405       .  A
C351        C356   1.404       .  A
C351        H361   1.083       .  S
C352        C357   1.485       .  S
C352        C353   1.405       .  A
C353        C354   1.397       .  A
C353        F358   1.358       .  S
C354        C355   1.406       .  A
C354        H359   1.083       .  S
C355        C356   1.408       .  A
C356        F360   1.357       .  S
C357        C362   1.408       .  A
C357        C366   1.400       .  A
C362        C363   1.406       .  A
C362        F367   1.357       .  S
C363        C364   1.407       .  A
C363        H368   1.083       .  S
C364        C365   1.412       .  A
C365        C366   1.394       .  A
C365        F369   1.358       .  S
C366        H370   1.083       .  S
C371        C372   1.401       .  A
C371        C376   1.394       .  A
C371        H381   1.083       .  S
C372        C377   1.484       .  S
C372        C373   1.408       .  A
C373        C374   1.404       .  A
C373        F378   1.357       .  S
C374        C375   1.408       .  A
C374        H379   1.083       .  S
C375        C376   1.412       .  A
C376        F380   1.357       .  S
C377        C382   1.408       .  A
C377        C386   1.404       .  A
C382        C383   1.398       .  A
C382        F387   1.358       .  S
C383        C384   1.404       .  A
C383        H388   1.083       .  S
C384        C385   1.409       .  A
C385        C386   1.399       .  A
C385        F389   1.357       .  S
C386        H390   1.083       .  S
