geometry optimzed in LAMMPS
_audit_creation_date              2020-11-30 
_audit_creation_method            'lammps2cif' 
_symmetry_space_group_name_H-M    'P1' 
_symmetry_Int_Tables_number       1 
_symmetry_cell_setting            triclinic 
loop_ 
_symmetry_equiv_pos_as_xyz 
  x,y,z 
_cell_length_a                    49.9298768099702 
_cell_length_b                    45.517284597943714 
_cell_length_c                    43.70335920057194 
_cell_angle_alpha                 90.11293834813593 
_cell_angle_beta                  89.93840147765412 
_cell_angle_gamma                 89.92513402127169 
loop_ 
_atom_site_label 
_atom_site_type_symbol 
_atom_site_fract_x 
_atom_site_fract_y 
_atom_site_fract_z 
_atom_site_charge 
N1          N  0.35727743  0.92965135  0.53736592    -0.27540
N2          N  0.37898029  0.94621032  0.53809991    -0.35400
C3          C  0.38235469  0.95898085  0.51075985     0.00800
C4          C  0.36170010  0.95041748  0.49180823     0.06830
C5          C  0.34612844  0.93168764  0.50932945    -0.06270
H6          H  0.39999224  0.97125923  0.50420613     0.07490
H7          H  0.32964823  0.91828784  0.50138938     0.08690
Cu8        Cu  0.40722155  0.94490120  0.57246293     0.44170
Cu9        Cu  0.34810944  0.90076555  0.57271941     0.41990
Cu10       Cu  0.40187270  0.89135673  0.63082343     0.43880
N11         N  0.43901772  0.93302892  0.59986914    -0.34930
N12         N  0.43770355  0.91235936  0.62096118    -0.29180
C13         C  0.46268857  0.90639167  0.63092757    -0.05280
C14         C  0.48040956  0.92433113  0.61523397     0.06940
C15         C  0.46462843  0.94095145  0.59590146     0.00730
H16         H  0.46766995  0.88927246  0.64710534     0.08380
H17         H  0.47137094  0.95625709  0.57862731     0.07460
N18         N  0.36518919  0.86994607  0.63123020    -0.36370
N19         N  0.34640059  0.87241127  0.61003583    -0.28550
C20         C  0.32691880  0.85283069  0.61596012    -0.03790
C21         C  0.33381981  0.83708966  0.64191294     0.04820
C22         C  0.35792435  0.84910779  0.65130296     0.02910
H23         H  0.30941733  0.84961636  0.60176999     0.08020
H24         H  0.36973452  0.84289810  0.67097423     0.06850
N25         N  0.63667615  0.93494133  0.54328713    -0.27540
N26         N  0.61336610  0.94864279  0.54214320    -0.35400
C27         C  0.60976434  0.95966307  0.51405209     0.00800
C28         C  0.63190593  0.95290360  0.49651450     0.06830
C29         C  0.64869540  0.93715979  0.51569934    -0.06270
H30         H  0.59125600  0.96941175  0.50612106     0.07490
H31         H  0.66677541  0.92558890  0.50920243     0.08690
Cu32       Cu  0.58397422  0.94515452  0.57496211     0.44170
Cu33       Cu  0.64666745  0.90823434  0.58014542     0.41990
Cu34       Cu  0.58770683  0.88692540  0.62807252     0.43880
N35         N  0.55154917  0.93170082  0.60039965    -0.34930
N36         N  0.55219036  0.90938563  0.61962723    -0.29180
C37         C  0.52701597  0.90382166  0.62927314    -0.05280
C38         C  0.50990494  0.92365094  0.61515760     0.06940
C39         C  0.52623020  0.94095077  0.59714750     0.00730
H40         H  0.52146504  0.88585530  0.64415622     0.08380
H41         H  0.52005635  0.95799724  0.58142983     0.07460
N42         N  0.62601740  0.86913211  0.63133234    -0.36370
N43         N  0.64719720  0.87734229  0.61522778    -0.28550
C44         C  0.66823318  0.86051267  0.62321775    -0.03790
C45         C  0.65980747  0.84019293  0.64478394     0.04820
C46         C  0.63302943  0.84671623  0.64959801     0.02910
H47         H  0.68805610  0.86274205  0.61354379     0.08020
H48         H  0.61931312  0.83535101  0.66464233     0.06850
N49         N  0.63775793  0.97354455  0.41687186    -0.27540
N50         N  0.61534635  0.95817711  0.41663807    -0.35400
C51         C  0.61148139  0.94631306  0.44432493     0.00800
C52         C  0.63255648  0.95425297  0.46298799     0.06830
C53         C  0.64893884  0.97158637  0.44489297    -0.06270
H54         H  0.59332088  0.93519636  0.45125750     0.07490
H55         H  0.66598330  0.98433646  0.45242521     0.08690
Cu56       Cu  0.58715686  0.96039682  0.38230474     0.44170
Cu57       Cu  0.64758831  0.00131382  0.38092816     0.41990
Cu58       Cu  0.59278767  0.01483359  0.32457272     0.43880
N59         N  0.55551526  0.97283712  0.35498812    -0.34930
N60         N  0.55682267  0.99378338  0.33418441    -0.29180
C61         C  0.53185177  0.99948180  0.32394633    -0.05280
C62         C  0.51417906  0.98112553  0.33923178     0.06940
C63         C  0.52996976  0.96454823  0.35856640     0.00730
H64         H  0.52683113  0.01660745  0.30779043     0.08380
H65         H  0.52327605  0.94882502  0.37545283     0.07460
N66         N  0.63083252  0.03338569  0.32294283    -0.36370
N67         N  0.65005157  0.02913630  0.34336038    -0.28550
C68         C  0.67084521  0.04673223  0.33661110    -0.03790
C69         C  0.66463048  0.06240876  0.31052477     0.04820
C70         C  0.63912962  0.05348760  0.30253217     0.02910
H71         H  0.68888497  0.04855045  0.35018172     0.08020
H72         H  0.62694494  0.06209155  0.28414636     0.06850
N73         N  0.35893297  0.97323345  0.41257753    -0.27540
N74         N  0.38133816  0.95779004  0.41299056    -0.35400
C75         C  0.38413754  0.94518761  0.44049613     0.00800
C76         C  0.36235683  0.95269792  0.45834188     0.06830
C77         C  0.34672668  0.97064120  0.44000323    -0.06270
H78         H  0.40199513  0.93378412  0.44796751     0.07490
H79         H  0.32936426  0.98319867  0.44704982     0.08690
Cu80       Cu  0.41068952  0.96055344  0.37991612     0.44170
Cu81       Cu  0.35016452  0.00152172  0.37665429     0.41990
Cu82       Cu  0.40648564  0.01528802  0.32233075     0.43880
N83         N  0.44299960  0.97306419  0.35361055    -0.34930
N84         N  0.44216750  0.99405943  0.33282894    -0.29180
C85         C  0.46734804  0.99966459  0.32321872    -0.05280
C86         C  0.48466861  0.98119945  0.33889080     0.06940
C87         C  0.46845459  0.96465469  0.35780091     0.00730
H88         H  0.47272355  0.01678850  0.30721667     0.08380
H89         H  0.47477080  0.94883255  0.37478151     0.07460
N90         N  0.36857087  0.03404506  0.31959819    -0.36370
N91         N  0.34871564  0.02956155  0.33914297    -0.28550
C92         C  0.32808646  0.04715316  0.33167385    -0.03790
C93         C  0.33504023  0.06322311  0.30597287     0.04820
C94         C  0.36091616  0.05437975  0.29913072     0.02910
H95         H  0.30988955  0.04907095  0.34497009     0.08020
H96         H  0.37364598  0.06279986  0.28113788     0.06850
N97         N  0.35772709  0.43247854  0.41325598    -0.27540
N98         N  0.38051035  0.44717383  0.41406753    -0.35400
C99         C  0.38391211  0.45858917  0.44206989     0.00800
C100        C  0.36218137  0.45105318  0.45989793     0.06830
C101        C  0.34585915  0.43443160  0.44096391    -0.06270
H102        H  0.40211594  0.46915443  0.44976050     0.07490
H103        H  0.32828519  0.42215619  0.44771053     0.08690
Cu104      Cu  0.40976548  0.44458317  0.38092243     0.44170
Cu105      Cu  0.34827802  0.40520951  0.37653889     0.41990
Cu106      Cu  0.40673707  0.38664137  0.32687039     0.43880
N107        N  0.44234908  0.43157852  0.35532671    -0.34930
N108        N  0.44192685  0.40937294  0.33585777    -0.29180
C109        C  0.46718213  0.40381712  0.32646756    -0.05280
C110        C  0.48413378  0.42353211  0.34097391     0.06940
C111        C  0.46763329  0.44078695  0.35894915     0.00730
H112        H  0.47289067  0.38586436  0.31155705     0.08380
H113        H  0.47366980  0.45763894  0.37500525     0.07460
N114        N  0.36882649  0.36805975  0.32351079    -0.36370
N115        N  0.34776813  0.37521333  0.34047262    -0.28550
C116        C  0.32699654  0.35802114  0.33244295    -0.03790
C117        C  0.33552258  0.33898229  0.30977853     0.04820
C118        C  0.36203023  0.34598267  0.30459161     0.02910
H119        H  0.30754667  0.35835547  0.34337004     0.08020
H120        H  0.37560656  0.33527670  0.28879562     0.06850
N121        N  0.63815911  0.43248005  0.41765618    -0.27540
N122        N  0.61545346  0.44741479  0.41793482    -0.35400
C123        C  0.61167955  0.45902575  0.44581030     0.00800
C124        C  0.63307184  0.45137238  0.46410447     0.06830
C125        C  0.64957162  0.43445147  0.44558030    -0.06270
H126        H  0.59342065  0.46980603  0.45310088     0.07490
H127        H  0.66694462  0.42201489  0.45273224     0.08690
Cu128      Cu  0.58673583  0.44511308  0.38413232     0.44170
Cu129      Cu  0.64824904  0.40503409  0.38125648     0.41990
Cu130      Cu  0.59199176  0.38966228  0.32760845     0.43880
N131        N  0.55490586  0.43253852  0.35709368    -0.34930
N132        N  0.55624260  0.41119190  0.33665993    -0.29180
C133        C  0.53133629  0.40528241  0.32647108    -0.05280
C134        C  0.51361680  0.42392915  0.34136829     0.06940
C135        C  0.52932203  0.44092007  0.36046520     0.00730
H136        H  0.52639122  0.38778074  0.31067598     0.08380
H137        H  0.52253226  0.45690005  0.37711445     0.07460
N138        N  0.62947920  0.37004801  0.32592678    -0.36370
N139        N  0.64962559  0.37551083  0.34479808    -0.28550
C140        C  0.66995611  0.35713737  0.33812290    -0.03790
C141        C  0.66206049  0.33901997  0.31435060     0.04820
C142        C  0.63648233  0.34811757  0.30691534     0.02910
H143        H  0.68862437  0.35608642  0.35063376     0.08020
H144        H  0.62353905  0.33891120  0.28953951     0.06850
N145        N  0.35631001  0.47146545  0.53977933    -0.27540
N146        N  0.37930974  0.45710511  0.53960769    -0.35400
C147        C  0.38335323  0.44544682  0.51180584     0.00800
C148        C  0.36181960  0.45247993  0.49345164     0.06830
C149        C  0.34495315  0.46906302  0.51186843    -0.06270
H150        H  0.40186319  0.43515523  0.50457644     0.07490
H151        H  0.32738444  0.48110443  0.50460789     0.08690
Cu152      Cu  0.40791329  0.46066194  0.57335220     0.44170
Cu153      Cu  0.34595439  0.49912652  0.57584510     0.41990
Cu154      Cu  0.40316890  0.51967932  0.62633235     0.43880
N155        N  0.43972086  0.47433113  0.59975406    -0.34930
N156        N  0.43869805  0.49687651  0.61877994    -0.29180
C157        C  0.46367427  0.50259281  0.62892787    -0.05280
C158        C  0.48107400  0.48262521  0.61539744     0.06940
C159        C  0.46511516  0.46506227  0.59719393     0.00730
H160        H  0.46892121  0.52077118  0.64373378     0.08380
H161        H  0.47162691  0.44789862  0.58171858     0.07460
N162        N  0.36492673  0.53785819  0.62832243    -0.36370
N163        N  0.34432444  0.52989953  0.61109759    -0.28550
C164        C  0.32309265  0.54684729  0.61820306    -0.03790
C165        C  0.33081008  0.56658569  0.64053298     0.04820
C166        C  0.35735133  0.56025485  0.64649631     0.02910
H167        H  0.30385147  0.54582667  0.60687953     0.08020
H168        H  0.37039980  0.57157356  0.66235784     0.06850
N169        N  0.63700445  0.47185911  0.54413473    -0.27540
N170        N  0.61430137  0.45699756  0.54341836    -0.35400
C171        C  0.61105768  0.44526640  0.51552361     0.00800
C172        C  0.63279171  0.45276787  0.49766935     0.06830
C173        C  0.64894183  0.46972087  0.51647942    -0.06270
H174        H  0.59290907  0.43456998  0.50785936     0.07490
H175        H  0.66642494  0.48210593  0.50964179     0.08690
Cu176      Cu  0.58484044  0.45974630  0.57641411     0.44170
Cu177      Cu  0.64638613  0.49952156  0.58057722     0.41990
Cu178      Cu  0.58864255  0.51637115  0.63178896     0.43880
N179        N  0.55228916  0.47301637  0.60205902    -0.34930
N180        N  0.55307098  0.49482545  0.62199012    -0.29180
C181        C  0.52788144  0.50105124  0.63114469    -0.05280
C182        C  0.51056706  0.48213453  0.61608589     0.06940
C183        C  0.52680363  0.46465667  0.59798862     0.00730
H184        H  0.52250393  0.51891843  0.64632422     0.08380
H185        H  0.52048125  0.44832640  0.58149896     0.07460
N186        N  0.62631676  0.53540939  0.63475083    -0.36370
N187        N  0.64702876  0.52932157  0.61683535    -0.28550
C188        C  0.66741813  0.54730329  0.62422708    -0.03790
C189        C  0.65898467  0.56580973  0.64746212     0.04820
C190        C  0.63299505  0.55739928  0.65381045     0.02910
H191        H  0.68650786  0.54786174  0.61250897     0.08020
H192        H  0.61958246  0.56715381  0.67043035     0.06850
N193        N  0.85698960  0.93184594  0.91686211    -0.27540
N194        N  0.87976334  0.94654204  0.91631281    -0.35400
C195        C  0.88397785  0.95874451  0.94380921     0.00800
C196        C  0.86273382  0.95175747  0.96263770     0.06830
C197        C  0.84589775  0.93460840  0.94488402    -0.06270
H198        H  0.90239157  0.96949778  0.95049664     0.07490
H199        H  0.82852517  0.92254689  0.95265348     0.08690
Cu200      Cu  0.90768825  0.94299382  0.88178938     0.44170
Cu201      Cu  0.84652326  0.90376533  0.88139607     0.41990
Cu202      Cu  0.90134943  0.88692756  0.82565346     0.43880
N203        N  0.93909242  0.92932008  0.85469161    -0.34930
N204        N  0.93761108  0.90767934  0.83460663    -0.29180
C205        C  0.96254576  0.90141622  0.82448768    -0.05280
C206        C  0.98034737  0.92017187  0.83908400     0.06940
C207        C  0.96467877  0.93753332  0.85788936     0.00730
H208        H  0.96743881  0.88375320  0.80884153     0.08380
H209        H  0.97146982  0.95379937  0.87420215     0.07460
N210        N  0.86277400  0.86963857  0.82432477    -0.36370
N211        N  0.84355382  0.87511803  0.84450932    -0.28550
C212        C  0.82226409  0.85813423  0.83806630    -0.03790
C213        C  0.82820929  0.84163584  0.81244298     0.04820
C214        C  0.85397349  0.84934368  0.80433212     0.02910
H215        H  0.80409651  0.85729057  0.85154310     0.08020
H216        H  0.86590882  0.83987669  0.78613519     0.06850
N217        N  0.13637756  0.93405334  0.90985330    -0.27540
N218        N  0.11287149  0.94734054  0.91100628    -0.35400
C219        C  0.10912960  0.95856424  0.93904159     0.00800
C220        C  0.13140627  0.95240749  0.95651411     0.06830
C221        C  0.14840584  0.93675994  0.93737156    -0.06270
H222        H  0.09053217  0.96818198  0.94694953     0.07490
H223        H  0.16675445  0.92572812  0.94381424     0.08690
Cu224      Cu  0.08372070  0.94329480  0.87803563     0.44170
Cu225      Cu  0.14681510  0.90775466  0.87272721     0.41990
Cu226      Cu  0.08845305  0.88594717  0.82378689     0.43880
N227        N  0.05147499  0.92917715  0.85272064    -0.34930
N228        N  0.05240495  0.90700820  0.83323734    -0.29180
C229        C  0.02724028  0.90076364  0.82400778    -0.05280
C230        C  0.00985527  0.92004932  0.83863016     0.06940
C231        C  0.02601122  0.93771289  0.85649309     0.00730
H232        H  0.02192774  0.88277796  0.80897900     0.08380
H233        H  0.01966801  0.95449545  0.87250309     0.07460
N234        N  0.12739514  0.87009173  0.81957174    -0.36370
N235        N  0.14828742  0.87844465  0.83613449    -0.28550
C236        C  0.16978583  0.86249220  0.82768030    -0.03790
C237        C  0.16201770  0.84319636  0.80494101     0.04820
C238        C  0.13506965  0.84844917  0.80052734     0.02910
H239        H  0.18918353  0.86354217  0.83864934     0.08020
H240        H  0.12174574  0.83658861  0.78541133     0.06850
N241        N  0.85916943  0.97369442  0.04220367    -0.27540
N242        N  0.88178791  0.95864145  0.04168092    -0.35400
C243        C  0.88501763  0.94651864  0.01396057     0.00800
C244        C  0.86329132  0.95394934  0.99609680     0.06830
C245        C  0.84719469  0.97126453  0.01465268    -0.06270
H246        H  0.90307259  0.93546850  0.00644673     0.07490
H247        H  0.82970412  0.98361071  0.00770506     0.08690
Cu248      Cu  0.91080444  0.96147178  0.07499012     0.44170
Cu249      Cu  0.85010677  0.00171673  0.07831126     0.41990
Cu250      Cu  0.90673262  0.01699301  0.13201406     0.43880
N251        N  0.94309871  0.97409565  0.10113663    -0.34930
N252        N  0.94239927  0.99536541  0.12170953    -0.29180
C253        C  0.96764516  0.00087374  0.13117125    -0.05280
C254        C  0.98483994  0.98207298  0.11558768     0.06940
C255        C  0.96848681  0.96543879  0.09690996     0.00730
H256        H  0.97316279  0.01816222  0.14697157     0.08380
H257        H  0.97466319  0.94935440  0.08005793     0.07460
N258        N  0.86877157  0.03594588  0.13432693    -0.36370
N259        N  0.84886540  0.03082340  0.11499635    -0.28550
C260        C  0.82825883  0.04870317  0.12190096    -0.03790
C261        C  0.83551785  0.06588830  0.14662103     0.04820
C262        C  0.86113890  0.05700986  0.15414623     0.02910
H263        H  0.80961847  0.04963992  0.10932540     0.08020
H264        H  0.87377840  0.06614195  0.17185867     0.06850
N265        N  0.13706625  0.97518504  0.03560578    -0.27540
N266        N  0.11510545  0.95906093  0.03640000    -0.35400
C267        C  0.11146726  0.94635737  0.00903389     0.00800
C268        C  0.13223149  0.95450901  0.99000111     0.06830
C269        C  0.14817538  0.97287431  0.00753729    -0.06270
H270        H  0.09360424  0.93444379  0.00252743     0.07490
H271        H  0.16484785  0.98595932  0.99956875     0.08690
Cu272      Cu  0.08707156  0.96100210  0.07102002     0.44170
Cu273      Cu  0.14658709  0.00386237  0.07104578     0.41990
Cu274      Cu  0.09342896  0.01398352  0.13018216     0.43880
N275        N  0.05559480  0.97318578  0.09887105    -0.34930
N276        N  0.05717641  0.99364536  0.12024685    -0.29180
C277        C  0.03227882  0.99949663  0.13073291    -0.05280
C278        C  0.01436443  0.98171456  0.11504559     0.06940
C279        C  0.02994682  0.96532935  0.09519571     0.00730
H280        H  0.02748317  0.01633011  0.14738040     0.08380
H281        H  0.02305025  0.95007116  0.07791126     0.07460
N282        N  0.13126451  0.03311331  0.13124545    -0.36370
N283        N  0.14967434  0.03058430  0.10958138    -0.28550
C284        C  0.17022740  0.04854241  0.11623360    -0.03790
C285        C  0.16497137  0.06264900  0.14377568     0.04820
C286        C  0.13997123  0.05226636  0.15243107     0.02910
H287        H  0.18716210  0.05200154  0.10114778     0.08020
H288        H  0.12839871  0.05889733  0.17224723     0.06850
N289        N  0.85663101  0.47310234  0.91772007    -0.27540
N290        N  0.87951287  0.45850803  0.91825808    -0.35400
C291        C  0.88327225  0.44729757  0.94624568     0.00800
C292        C  0.86172581  0.45491029  0.96440391     0.06830
C293        C  0.84509458  0.47131851  0.94562418    -0.06270
H294        H  0.90165614  0.43695039  0.95372198     0.07490
H295        H  0.82757353  0.48364389  0.95259857     0.08690
Cu296      Cu  0.90862936  0.46119598  0.88491472     0.44170
Cu297      Cu  0.84657940  0.50004590  0.88099292     0.41990
Cu298      Cu  0.90482844  0.51919978  0.83146856     0.43880
N299        N  0.94094106  0.47428941  0.85892188    -0.34930
N300        N  0.94017619  0.49655343  0.83963443    -0.29180
C301        C  0.96519310  0.50186741  0.82938889    -0.05280
C302        C  0.98238658  0.48193593  0.84314592     0.06940
C303        C  0.96625948  0.46481709  0.86161017     0.00730
H304        H  0.97058931  0.51968456  0.81424085     0.08380
H305        H  0.97259492  0.44772157  0.87718455     0.07460
N306        N  0.86648120  0.53638904  0.82726095    -0.36370
N307        N  0.84551747  0.52910179  0.84418325    -0.28550
C308        C  0.82433079  0.54520357  0.83518946    -0.03790
C309        C  0.83223600  0.56344363  0.81144735     0.04820
C310        C  0.85918701  0.55738428  0.80737888     0.02910
H311        H  0.80478083  0.54434238  0.84584472     0.08020
H312        H  0.87297745  0.56840473  0.79217649     0.06850
N313        N  0.13708862  0.47292931  0.91495491    -0.27540
N314        N  0.11498455  0.45702322  0.91526849    -0.35400
C315        C  0.11204601  0.44481883  0.94294554     0.00800
C316        C  0.13342717  0.45309123  0.96096471     0.06830
C317        C  0.14897725  0.47100748  0.94257296    -0.06270
H318        H  0.09428923  0.43322248  0.95037021     0.07490
H319        H  0.16596462  0.48407180  0.94967936     0.08690
Cu320      Cu  0.08588292  0.45883292  0.88192581     0.44170
Cu321      Cu  0.14583337  0.50115696  0.87908869     0.41990
Cu322      Cu  0.09030749  0.51322032  0.82399999     0.43880
N323        N  0.05353768  0.47165448  0.85591793    -0.34930
N324        N  0.05449252  0.49266313  0.83515725    -0.29180
C325        C  0.02930812  0.49900978  0.82615035    -0.05280
C326        C  0.01185309  0.48099072  0.84214364     0.06940
C327        C  0.02797567  0.46392004  0.86063886     0.00730
H328        H  0.02405205  0.51637279  0.81037239     0.08380
H329        H  0.02155422  0.44836426  0.87782845     0.07460
N330        N  0.12807944  0.53217169  0.82109475    -0.36370
N331        N  0.14755447  0.52865504  0.84127164    -0.28550
C332        C  0.16795204  0.54656979  0.83394475    -0.03790
C333        C  0.16135233  0.56175703  0.80752485     0.04820
C334        C  0.13583408  0.55203403  0.80020315     0.02910
H335        H  0.18566488  0.54931310  0.84785683     0.08020
H336        H  0.12331747  0.55958993  0.78162179     0.06850
N337        N  0.85722301  0.43606994  0.04481992    -0.27540
N338        N  0.88047387  0.44984879  0.04369372    -0.35400
C339        C  0.88404474  0.46092385  0.01561162     0.00800
C340        C  0.86199939  0.45407292  0.99800234     0.06830
C341        C  0.84526749  0.43825124  0.01720372    -0.06270
H342        H  0.90257467  0.47058791  0.00765862     0.07490
H343        H  0.82735341  0.42647528  0.01064989     0.08690
Cu344      Cu  0.91017236  0.44599959  0.07615386     0.44170
Cu345      Cu  0.84727193  0.40903441  0.08151133     0.41990
Cu346      Cu  0.90673760  0.38590375  0.12697743     0.43880
N347        N  0.94273637  0.43162581  0.10092313    -0.34930
N348        N  0.94205641  0.40862681  0.11925344    -0.29180
C349        C  0.96717416  0.40251137  0.12860945    -0.05280
C350        C  0.98434815  0.42268336  0.11526133     0.06940
C351        C  0.96810985  0.44079290  0.09797942     0.00730
H352        H  0.97263683  0.38394586  0.14272659     0.08380
H353        H  0.97438455  0.45831132  0.08289837     0.07460
N354        N  0.86862508  0.36813158  0.13063873    -0.36370
N355        N  0.84709329  0.37723217  0.11576857    -0.28550
C356        C  0.82611307  0.36053855  0.12415215    -0.03790
C357        C  0.83496645  0.33924555  0.14452282     0.04820
C358        C  0.86197214  0.34517575  0.14829547     0.02910
H359        H  0.80601095  0.36367787  0.11562623     0.08020
H360        H  0.87607950  0.33317446  0.16229512     0.06850
N361        N  0.13846726  0.43188837  0.04043056    -0.27540
N362        N  0.11606961  0.44736090  0.04055791    -0.35400
C363        C  0.11246813  0.45940634  0.01291463     0.00800
C364        C  0.13369627  0.45147147  0.99443335     0.06830
C365        C  0.14987126  0.43392550  0.01252481    -0.06270
H366        H  0.09438553  0.47063070  0.00586195     0.07490
H367        H  0.16696836  0.42115091  0.00506352     0.08690
Cu368      Cu  0.08742850  0.44501911  0.07442262     0.44170
Cu369      Cu  0.14816128  0.40381854  0.07613033     0.41990
Cu370      Cu  0.09197669  0.38809289  0.12951164     0.43880
N371        N  0.05534385  0.43178298  0.10063358    -0.34930
N372        N  0.05633745  0.40983358  0.12030446    -0.29180
C373        C  0.03126001  0.40374046  0.12984558    -0.05280
C374        C  0.01382248  0.42289959  0.11532612     0.06940
C375        C  0.02984633  0.44036880  0.09713195     0.00730
H376        H  0.02602726  0.38585158  0.14497717     0.08380
H377        H  0.02334878  0.45685778  0.08094762     0.07460
N378        N  0.13002727  0.36980854  0.13216222    -0.36370
N379        N  0.15000646  0.37516812  0.11301910    -0.28550
C380        C  0.17094123  0.35800504  0.12047325    -0.03790
C381        C  0.16395343  0.34135468  0.14567581     0.04820
C382        C  0.13784936  0.34928402  0.15233125     0.02910
H383        H  0.18964485  0.35717312  0.10797242     0.08020
H384        H  0.12502083  0.33985985  0.16967977     0.06850
O385        O  0.25096324  0.73421954  0.68633126    -0.73190
O386        O  0.20842656  0.67159713  0.72832073    -0.74170
O387        O  0.20959401  0.73418012  0.73042508    -0.62790
O388        O  0.24989140  0.67151013  0.68458762    -0.71200
O389        O  0.27970819  0.66960310  0.72225856    -0.70760
O390        O  0.24022868  0.73324839  0.76727078    -0.62010
O391        O  0.23811280  0.67043785  0.76601174    -0.74520
O392        O  0.28142666  0.73228060  0.72318421    -0.73300
Cu393      Cu  0.22866560  0.70293319  0.70612228     1.04560
Cu394      Cu  0.26092601  0.70131260  0.74599241     1.04330
C395        C  0.27260577  0.74361751  0.69841186     0.93000
C396        C  0.21655933  0.66097268  0.75367711     0.92140
C397        C  0.21891061  0.74397133  0.75567584     0.84290
C398        C  0.27081851  0.66028313  0.69665061     0.90560
O399        O  0.77973849  0.73464263  0.73325440    -0.73190
O400        O  0.73868895  0.67086026  0.69137358    -0.74170
O401        O  0.73722539  0.73360636  0.69122352    -0.62790
O402        O  0.78101105  0.67193155  0.73395846    -0.71200
O403        O  0.75105111  0.67026289  0.77122287    -0.70760
O404        O  0.70903482  0.73393576  0.73020758    -0.62010
O405        O  0.70865762  0.67120694  0.72887855    -0.74520
O406        O  0.75165427  0.73288711  0.77266808    -0.73300
Cu407      Cu  0.76018305  0.70275893  0.71111930     1.04560
Cu408      Cu  0.72907164  0.70207574  0.75206955     1.04330
C409        C  0.77208556  0.74396055  0.75939087     0.93000
C410        C  0.71751404  0.66063092  0.70373146     0.92140
C411        C  0.71646220  0.74421352  0.70441983     0.84290
C412        C  0.77269205  0.66085086  0.75912260     0.90560
O413        O  0.25724729  0.17162668  0.26622333    -0.73190
O414        O  0.21352115  0.23324601  0.22410007    -0.74170
O415        O  0.21412285  0.17082369  0.22478033    -0.62790
O416        O  0.25669894  0.23450779  0.26555275    -0.71200
O417        O  0.28551123  0.23422590  0.22675010    -0.70760
O418        O  0.24276132  0.17054160  0.18597695    -0.62010
O419        O  0.24213291  0.23315979  0.18527363    -0.74520
O420        O  0.28611397  0.17170353  0.22752757    -0.73300
Cu421      Cu  0.23442805  0.20255671  0.24654019     1.04560
Cu422      Cu  0.26513579  0.20239374  0.20502030     1.04330
C423        C  0.27837316  0.16166971  0.25333484     0.93000
C424        C  0.22099324  0.24313815  0.19812447     0.92140
C425        C  0.22173143  0.16052534  0.19898660     0.84290
C426        C  0.27751369  0.24469174  0.25230617     0.90560
O427        O  0.71320351  0.17125871  0.23256267    -0.73190
O428        O  0.75660145  0.23420681  0.19210860    -0.74170
O429        O  0.75616162  0.17140191  0.19083984    -0.62790
O430        O  0.71345658  0.23387433  0.23383475    -0.71200
O431        O  0.74309855  0.23419809  0.27166960    -0.70760
O432        O  0.78409295  0.16969683  0.23024195    -0.62010
O433        O  0.78598072  0.23239211  0.22980500    -0.74520
O434        O  0.74117515  0.17157808  0.27199822    -0.73300
Cu435      Cu  0.73386526  0.20273421  0.21096968     1.04560
Cu436      Cu  0.76459657  0.20194535  0.25225969     1.04330
C437        C  0.72045317  0.16133496  0.25859353     0.93000
C438        C  0.77801159  0.24372443  0.20472007     0.92140
C439        C  0.77630677  0.15992755  0.20432296     0.84290
C440        C  0.72198428  0.24439789  0.25911818     0.90560
C441        C  0.20574331  0.26739673  0.18383995    -0.06370
C442        C  0.19324344  0.28793575  0.20321078    -0.17500
C443        C  0.18051813  0.31285832  0.19153522     0.10830
C444        C  0.17944838  0.31717639  0.15957749    -0.06300
C445        C  0.19198401  0.29677191  0.14015322    -0.17530
C446        C  0.20474586  0.27181710  0.15182794     0.10860
S447        S  0.16745205  0.33904292  0.21875996    -0.32500
S448        S  0.21784306  0.24574567  0.12453555    -0.32500
H449        H  0.20970590  0.22083701  0.14115060     0.28870
H450        H  0.17317371  0.36398349  0.20097053     0.28860
H451        H  0.19426670  0.28519197  0.22780218     0.19450
H452        H  0.19088415  0.29964360  0.11558338     0.19460
C453        C  0.81982363  0.31490220  0.15929288    -0.06370
C454        C  0.82843500  0.30513316  0.18813752    -0.17500
C455        C  0.81564149  0.28214739  0.20349668     0.10830
C456        C  0.79308905  0.26826192  0.19004215    -0.06300
C457        C  0.78442581  0.27819651  0.16121132    -0.17530
C458        C  0.79770469  0.30064827  0.14552298     0.10860
S459        S  0.82969572  0.27188996  0.23990602    -0.32500
S460        S  0.78641196  0.30798408  0.10715742    -0.32500
H461        H  0.81241830  0.30960948  0.09485448     0.28870
H462        H  0.80561461  0.27639868  0.25584321     0.28860
H463        H  0.84527677  0.31570467  0.19918607     0.19450
H464        H  0.76753213  0.26776519  0.15010701     0.19460
C465        C  0.17612759  0.58638791  0.79294697    -0.06370
C466        C  0.16120495  0.60911440  0.77943699    -0.17500
C467        C  0.17355221  0.63383265  0.76682140     0.10830
C468        C  0.20176080  0.63651789  0.76813409    -0.06300
C469        C  0.21672874  0.61384514  0.78160965    -0.17530
C470        C  0.20441325  0.58853312  0.79302488     0.10860
S471        S  0.15173706  0.66096764  0.74996388    -0.32500
S472        S  0.22620397  0.55901425  0.80467407    -0.32500
H473        H  0.20962584  0.53658510  0.79320677     0.28870
H474        H  0.16787524  0.68528737  0.75643299     0.28860
H475        H  0.13954590  0.60803757  0.77915762     0.19450
H476        H  0.23841116  0.61508562  0.78170246     0.19460
C477        C  0.81643505  0.58742765  0.79714380    -0.06370
C478        C  0.79804868  0.60288917  0.81539025    -0.17500
C479        C  0.78394807  0.62712762  0.80414262     0.10830
C480        C  0.78783372  0.63625652  0.77344002    -0.06300
C481        C  0.80580842  0.62026573  0.75499098    -0.17530
C482        C  0.81990221  0.59591720  0.76629537     0.10860
S483        S  0.76206860  0.64558608  0.83080226    -0.32500
S484        S  0.84053726  0.57476312  0.74029877    -0.32500
H485        H  0.83818678  0.59342379  0.71482347     0.28870
H486        H  0.77159933  0.67373996  0.82351557     0.28860
H487        H  0.79524868  0.59670031  0.83909172     0.19450
H488        H  0.80830312  0.62637262  0.73125226     0.19460
C489        C  0.20670838  0.13616165  0.18448998    -0.06370
C490        C  0.22115703  0.11458352  0.16845108    -0.17500
C491        C  0.20852081  0.08976895  0.15618957     0.10830
C492        C  0.18033195  0.08683702  0.15860854    -0.06300
C493        C  0.16597188  0.10847957  0.17479211    -0.17530
C494        C  0.17869403  0.13291561  0.18761851     0.10860
S495        S  0.23001411  0.06194116  0.14000901    -0.32500
S496        S  0.15771059  0.15973186  0.20638807    -0.32500
H497        H  0.17145254  0.18417918  0.19453592     0.28870
H498        H  0.21504297  0.03823448  0.15150843     0.28860
H499        H  0.24275553  0.11638641  0.16659860     0.19450
H500        H  0.14438324  0.10700516  0.17672180     0.19460
C501        C  0.82013673  0.09003598  0.16078646    -0.06370
C502        C  0.81578872  0.08936231  0.19246426    -0.17500
C503        C  0.80071710  0.11122096  0.20705805     0.10830
C504        C  0.79061591  0.13508986  0.18985286    -0.06300
C505        C  0.79467870  0.13551439  0.15808682    -0.17530
C506        C  0.80947721  0.11346236  0.14344585     0.10860
S507        S  0.79369377  0.10637110  0.24722537    -0.32500
S508        S  0.81524572  0.11740975  0.10292958    -0.32500
H509        H  0.84158179  0.10641691  0.10348120     0.28870
H510        H  0.76718244  0.11677201  0.24548631     0.28860
H511        H  0.82349790  0.07116308  0.20578860     0.19450
H512        H  0.78703089  0.15368626  0.14468515     0.19460
C513        C  0.17747525  0.81826106  0.79269816    -0.06370
C514        C  0.16829563  0.78982150  0.79904097    -0.17500
C515        C  0.18230789  0.76508890  0.78881406     0.10830
C516        C  0.20548474  0.76878337  0.77079929    -0.06300
C517        C  0.21508321  0.79719655  0.76505647    -0.17530
C518        C  0.20130670  0.82199196  0.77574785     0.10860
S519        S  0.16989449  0.72964517  0.80025488    -0.32500
S520        S  0.21456800  0.85760002  0.76597365    -0.32500
H521        H  0.18973449  0.87210897  0.76449028     0.28870
H522        H  0.19456218  0.71480894  0.79865151     0.28860
H523        H  0.15035259  0.78686807  0.81266812     0.19450
H524        H  0.23304875  0.80011002  0.75148058     0.19460
C525        C  0.81229796  0.81758996  0.79938072    -0.06370
C526        C  0.81072538  0.79110515  0.81560884    -0.17500
C527        C  0.79814634  0.76648461  0.80293247     0.10830
C528        C  0.78645880  0.76855523  0.77364704    -0.06300
C529        C  0.78783439  0.79515483  0.75756121    -0.17530
C530        C  0.80037242  0.81976922  0.77024915     0.10860
S531        S  0.79893535  0.73276469  0.82445591    -0.32500
S532        S  0.80013853  0.85335432  0.74841385    -0.32500
H533        H  0.80050950  0.87251405  0.77368138     0.28870
H534        H  0.80044437  0.71402231  0.79888265     0.28860
H535        H  0.82018339  0.78931666  0.83783497     0.19450
H536        H  0.77860294  0.79691237  0.73520083     0.19460
C537        C  0.70316701  0.63634602  0.68884481    -0.06370
C538        C  0.67711938  0.64134460  0.67824371    -0.17500
C539        C  0.66258439  0.61903083  0.66382176     0.10830
C540        C  0.67391643  0.59064827  0.66093101    -0.06300
C541        C  0.69996763  0.58564310  0.67174479    -0.17530
C542        C  0.71472544  0.60817845  0.68554250     0.10860
S543        S  0.63031900  0.62867816  0.64830386    -0.32500
S544        S  0.74719116  0.59908536  0.70088047    -0.32500
H545        H  0.76059513  0.62245310  0.68663042     0.28870
H546        H  0.63273293  0.61092136  0.62205881     0.28860
H547        H  0.66829409  0.66301015  0.68055431     0.19450
H548        H  0.70870546  0.56389957  0.66989359     0.19460
C549        C  0.31482995  0.59094747  0.65324922    -0.06370
C550        C  0.29198670  0.58430854  0.67056940    -0.17500
C551        C  0.27689677  0.60658966  0.68448424     0.10830
C552        C  0.28485060  0.63617517  0.68103836    -0.06300
C553        C  0.30752819  0.64283263  0.66351285    -0.17530
C554        C  0.32241043  0.62059079  0.64930429     0.10860
S555        S  0.24872958  0.59571906  0.70772113    -0.32500
S556        S  0.35054026  0.63147156  0.62605225    -0.32500
H557        H  0.34787982  0.60875430  0.60441548     0.28870
H558        H  0.23272653  0.62029953  0.70127435     0.28860
H559        H  0.28617642  0.56158317  0.67375392     0.19450
H560        H  0.31362344  0.66552808  0.66081178     0.19460
C561        C  0.67720245  0.31415456  0.30111951    -0.06370
C562        C  0.70402856  0.31864125  0.29282882    -0.17500
C563        C  0.71913885  0.29611575  0.27947592     0.10830
C564        C  0.70722258  0.26852871  0.27391404    -0.06300
C565        C  0.68040748  0.26403253  0.28200165    -0.17530
C566        C  0.66546097  0.28626628  0.29612089     0.10860
S567        S  0.75286018  0.30435747  0.26786730    -0.32500
S568        S  0.63213303  0.27701287  0.30868821    -0.32500
H569        H  0.63337967  0.29356149  0.33587131     0.28870
H570        H  0.76406528  0.28252921  0.28663365     0.28860
H571        H  0.71316096  0.33996512  0.29636767     0.19450
H572        H  0.67127744  0.24276994  0.27804691     0.19460
C573        C  0.29224395  0.26907131  0.26647646    -0.06370
C574        C  0.31469515  0.26265399  0.28442884    -0.17500
C575        C  0.32874873  0.28499528  0.29943869     0.10830
C576        C  0.32039434  0.31448888  0.29614459    -0.06300
C577        C  0.29770732  0.32086492  0.27848661    -0.17530
C578        C  0.28377166  0.29851339  0.26329632     0.10860
S579        S  0.35654900  0.27435739  0.32329418    -0.32500
S580        S  0.25559437  0.30890192  0.23993031    -0.32500
H581        H  0.26007627  0.28763424  0.21714526     0.28870
H582        H  0.35272590  0.29645868  0.34541042     0.28860
H583        H  0.32102233  0.24005237  0.28724445     0.19450
H584        H  0.29128299  0.34346998  0.27581039     0.19460
C585        C  0.32000497  0.08776453  0.29170885    -0.06370
C586        C  0.33445669  0.11237016  0.28149337    -0.17500
C587        C  0.32146426  0.13708873  0.26965427     0.10830
C588        C  0.29325941  0.13743067  0.26778371    -0.06300
C589        C  0.27874775  0.11295337  0.27793983    -0.17530
C590        C  0.29174215  0.08795196  0.28915200     0.10860
S591        S  0.34197292  0.16786218  0.25851852    -0.32500
S592        S  0.27111805  0.05647357  0.29744325    -0.32500
H593        H  0.28985995  0.03570304  0.28684218     0.28870
H594        H  0.32326367  0.18952280  0.26692030     0.28860
H595        H  0.35607092  0.11279014  0.28353120     0.19450
H596        H  0.25711915  0.11275804  0.27575580     0.19460
C597        C  0.67997833  0.08679843  0.29697173    -0.06370
C598        C  0.68847934  0.10968221  0.31619045    -0.17500
C599        C  0.70079094  0.13478675  0.30427789     0.10830
C600        C  0.70546298  0.13681021  0.27246189    -0.06300
C601        C  0.69710783  0.11378688  0.25329668    -0.17530
C602        C  0.68471104  0.08875650  0.26519675     0.10860
S603        S  0.70856153  0.16409889  0.33060980    -0.32500
S604        S  0.67660933  0.05956025  0.23883756    -0.32500
H605        H  0.68088717  0.03654846  0.25970761     0.28870
H606        H  0.70250956  0.18694576  0.31008165     0.28860
H607        H  0.68451753  0.10852782  0.34053796     0.19450
H608        H  0.70107723  0.11484797  0.22894190     0.19460
C609        C  0.67508885  0.81594871  0.65943890    -0.06370
C610        C  0.66863908  0.80854687  0.68972169    -0.17500
C611        C  0.68108705  0.78513768  0.70476949     0.10830
C612        C  0.70140302  0.76874539  0.68967151    -0.06300
C613        C  0.70817872  0.77658672  0.65950182    -0.17530
C614        C  0.69502465  0.79936319  0.64411349     0.10860
S615        S  0.67000993  0.77797989  0.74326646    -0.32500
S616        S  0.70355883  0.80440922  0.60441051    -0.32500
H617        H  0.67684799  0.80770489  0.59478084     0.28870
H618        H  0.66061583  0.74970334  0.73583411     0.28860
H619        H  0.65350937  0.82104751  0.70189132     0.19450
H620        H  0.72341695  0.76431260  0.64726897     0.19460
C621        C  0.31866246  0.81246006  0.65590577    -0.06370
C622        C  0.29055013  0.81346344  0.65514749    -0.17500
C623        C  0.27498844  0.79160912  0.66892670     0.10830
C624        C  0.28769576  0.76776507  0.68378067    -0.06300
C625        C  0.31575005  0.76668614  0.68448231    -0.17770
C626        C  0.33130100  0.78820914  0.67020033     0.10860
S627        S  0.23913071  0.79636653  0.66782542    -0.32500
S628        S  0.36691110  0.78180258  0.66909673    -0.32500
H629        H  0.36998910  0.79145906  0.63873386     0.28870
H630        H  0.23467765  0.78623777  0.69773665     0.28860
H631        H  0.28052174  0.83188445  0.64443299     0.19450
H632        H  0.32570153  0.74823184  0.69525531     0.19460
loop_ 
_geom_bond_atom_site_label_1 
_geom_bond_atom_site_label_2 
_geom_bond_distance 
_geom_bond_site_symmetry_2 
_ccdc_geom_bond_type 
N1            N2   1.321       .  A
N1            C5   1.350       .  A
N1           Cu9   2.082       .  S
N2            C3   1.340       .  A
N2           Cu8   2.062       .  S
C3            C4   1.380       .  A
C3            H6   1.082       .  S
C4            C5   1.386       .  A
C4           C76   1.467       .  S
C5            H7   1.082       .  S
Cu8          N11   2.062       .  S
Cu9          N19   2.083       .  S
Cu10         N12   2.075       .  S
Cu10         N18   2.076       .  S
N11          N12   1.320       .  A
N11          C15   1.340       .  A
N12          C13   1.349       .  A
C13          C14   1.387       .  A
C13          H16   1.082       .  S
C14          C15   1.382       .  A
C14          C38   1.473       .  S
C15          H17   1.082       .  S
N18          N19   1.324       .  A
N18          C22   1.343       .  A
N19          C20   1.345       .  A
C20          C21   1.386       .  A
C20          H23   1.082       .  S
C21          C22   1.385       .  A
C21         C621   1.486       .  S
C22          H24   1.081       .  S
N25          N26   1.321       .  A
N25          C29   1.350       .  A
N25         Cu33   2.081       .  S
N26          C27   1.339       .  A
N26         Cu32   2.057       .  S
C27          C28   1.379       .  A
C27          H30   1.082       .  S
C28          C29   1.386       .  A
C28          C52   1.467       .  S
C29          H31   1.082       .  S
Cu32         N35   2.058       .  S
Cu33         N43   2.083       .  S
Cu34         N36   2.079       .  S
Cu34         N42   2.081       .  S
N35          N36   1.320       .  A
N35          C39   1.340       .  A
N36          C37   1.350       .  A
C37          C38   1.388       .  A
C37          H40   1.082       .  S
C38          C39   1.381       .  A
C39          H41   1.082       .  S
N42          N43   1.324       .  A
N42          C46   1.343       .  A
N43          C44   1.346       .  A
C44          C45   1.387       .  A
C44          H47   1.081       .  S
C45          C46   1.385       .  A
C45         C609   1.487       .  S
C46          H48   1.082       .  S
N49          N50   1.320       .  A
N49          C53   1.349       .  A
N49         Cu57   2.077   1_565  S
N50          C51   1.340       .  A
N50         Cu56   2.061       .  S
C51          C52   1.380       .  A
C51          H54   1.082       .  S
C52          C53   1.386       .  A
C53          H55   1.082       .  S
Cu56         N59   2.061       .  S
Cu57         N67   2.079       .  S
Cu58         N60   2.079   1_545  S
Cu58         N66   2.081       .  S
N59          N60   1.320       .  A
N59          C63   1.340       .  A
N60          C61   1.350       .  A
C61          C62   1.388       .  A
C61          H64   1.082   1_565  S
C62          C63   1.381       .  A
C62          C86   1.474       .  S
C63          H65   1.082       .  S
N66          N67   1.325       .  A
N66          C70   1.345       .  A
N67          C68   1.345       .  A
C68          C69   1.382       .  A
C68          H71   1.082       .  S
C69          C70   1.382       .  A
C69         C597   1.475       .  S
C70          H72   1.082       .  S
N73          N74   1.321       .  A
N73          C77   1.350       .  A
N73         Cu81   2.079   1_565  S
N74          C75   1.340       .  A
N74         Cu80   2.061       .  S
C75          C76   1.380       .  A
C75          H78   1.082       .  S
C76          C77   1.386       .  A
C77          H79   1.082       .  S
Cu80         N83   2.061       .  S
Cu81         N91   2.081       .  S
Cu82         N84   2.078   1_545  S
Cu82         N90   2.079       .  S
N83          N84   1.320       .  A
N83          C87   1.340       .  A
N84          C85   1.350       .  A
C85          C86   1.387       .  A
C85          H88   1.082   1_565  S
C86          C87   1.381       .  A
C87          H89   1.082       .  S
N90          N91   1.324       .  A
N90          C94   1.344       .  A
N91          C92   1.345       .  A
C92          C93   1.386       .  A
C92          H95   1.081       .  S
C93          C94   1.385       .  A
C93         C585   1.484       .  S
C94          H96   1.082       .  S
N97          N98   1.321       .  A
N97         C101   1.350       .  A
N97        Cu105   2.082       .  S
N98          C99   1.340       .  A
N98        Cu104   2.059       .  S
C99         C100   1.379       .  A
C99         H102   1.082       .  S
C100        C101   1.386       .  A
C100        C148   1.468       .  S
C101        H103   1.082       .  S
Cu104       N107   2.059       .  S
Cu105       N115   2.083       .  S
Cu106       N108   2.078       .  S
Cu106       N114   2.079       .  S
N107        N108   1.320       .  A
N107        C111   1.340       .  A
N108        C109   1.349       .  A
C109        C110   1.387       .  A
C109        H112   1.082       .  S
C110        C111   1.381       .  A
C110        C134   1.472       .  S
C111        H113   1.082       .  S
N114        N115   1.326       .  A
N114        C118   1.344       .  A
N115        C116   1.346       .  A
C116        C117   1.381       .  A
C116        H119   1.082       .  S
C117        C118   1.380       .  A
C117        C576   1.473       .  S
C118        H120   1.082       .  S
N121        N122   1.321       .  A
N121        C125   1.350       .  A
N121       Cu129   2.082       .  S
N122        C123   1.340       .  A
N122       Cu128   2.062       .  S
C123        C124   1.380       .  A
C123        H126   1.082       .  S
C124        C125   1.386       .  A
C124        C172   1.468       .  S
C125        H127   1.082       .  S
Cu128       N131   2.062       .  S
Cu129       N139   2.083       .  S
Cu130       N132   2.073       .  S
Cu130       N138   2.074       .  S
N131        N132   1.320       .  A
N131        C135   1.341       .  A
N132        C133   1.349       .  A
C133        C134   1.386       .  A
C133        H136   1.082       .  S
C134        C135   1.382       .  A
C135        H137   1.082       .  S
N138        N139   1.325       .  A
N138        C142   1.343       .  A
N139        C140   1.346       .  A
C140        C141   1.383       .  A
C140        H143   1.082       .  S
C141        C142   1.381       .  A
C141        C561   1.477       .  S
C142        H144   1.082       .  S
N145        N146   1.321       .  A
N145        C149   1.350       .  A
N145       Cu153   2.080       .  S
N146        C147   1.340       .  A
N146       Cu152   2.060       .  S
C147        C148   1.380       .  A
C147        H150   1.082       .  S
C148        C149   1.386       .  A
C149        H151   1.082       .  S
Cu152       N155   2.060       .  S
Cu153       N163   2.082       .  S
Cu154       N156   2.080       .  S
Cu154       N162   2.082       .  S
N155        N156   1.320       .  A
N155        C159   1.340       .  A
N156        C157   1.349       .  A
C157        C158   1.388       .  A
C157        H160   1.082       .  S
C158        C159   1.381       .  A
C158        C182   1.473       .  S
C159        H161   1.082       .  S
N162        N163   1.326       .  A
N162        C166   1.345       .  A
N163        C164   1.346       .  A
C164        C165   1.381       .  A
C164        H167   1.082       .  S
C165        C166   1.381       .  A
C165        C549   1.473       .  S
C166        H168   1.082       .  S
N169        N170   1.321       .  A
N169        C173   1.350       .  A
N169       Cu177   2.082       .  S
N170        C171   1.340       .  A
N170       Cu176   2.062       .  S
C171        C172   1.380       .  A
C171        H174   1.082       .  S
C172        C173   1.386       .  A
C173        H175   1.082       .  S
Cu176       N179   2.062       .  S
Cu177       N187   2.084       .  S
Cu178       N180   2.075       .  S
Cu178       N186   2.076       .  S
N179        N180   1.320       .  A
N179        C183   1.341       .  A
N180        C181   1.349       .  A
C181        C182   1.387       .  A
C181        H184   1.082       .  S
C182        C183   1.382       .  A
C183        H185   1.082       .  S
N186        N187   1.325       .  A
N186        C190   1.344       .  A
N187        C188   1.346       .  A
C188        C189   1.383       .  A
C188        H191   1.082       .  S
C189        C190   1.381       .  A
C189        C540   1.477       .  S
C190        H192   1.082       .  S
N193        N194   1.320       .  A
N193        C197   1.349       .  A
N193       Cu201   2.075       .  S
N194        C195   1.340       .  A
N194       Cu200   2.059       .  S
C195        C196   1.380       .  A
C195        H198   1.082       .  S
C196        C197   1.385       .  A
C196        C244   1.466       .  S
C197        H199   1.082       .  S
Cu200       N203   2.059       .  S
Cu201       N211   2.077       .  S
Cu202       N204   2.080       .  S
Cu202       N210   2.082       .  S
N203        N204   1.320       .  A
N203        C207   1.339       .  A
N204        C205   1.351       .  A
C205        C206   1.388       .  A
C205        H208   1.082       .  S
C206        C207   1.381       .  A
C206        C230   1.473   1_655  S
C207        H209   1.082       .  S
N210        N211   1.326       .  A
N210        C214   1.345       .  A
N211        C212   1.345       .  A
C212        C213   1.379       .  A
C212        H215   1.082       .  S
C213        C214   1.380       .  A
C213        C525   1.468       .  S
C214        H216   1.082       .  S
N217        N218   1.320       .  A
N217        C221   1.350       .  A
N217       Cu225   2.080       .  S
N218        C219   1.339       .  A
N218       Cu224   2.057       .  S
C219        C220   1.379       .  A
C219        H222   1.082       .  S
C220        C221   1.386       .  A
C220        C268   1.467       .  S
C221        H223   1.082       .  S
Cu224       N227   2.057       .  S
Cu225       N235   2.082       .  S
Cu226       N228   2.079       .  S
Cu226       N234   2.081       .  S
N227        N228   1.320       .  A
N227        C231   1.339       .  A
N228        C229   1.350       .  A
C229        C230   1.388       .  A
C229        H232   1.082       .  S
C230        C231   1.381       .  A
C231        H233   1.082       .  S
N234        N235   1.326       .  A
N234        C238   1.344       .  A
N235        C236   1.346       .  A
C236        C237   1.381       .  A
C236        H239   1.082       .  S
C237        C238   1.380       .  A
C237        C513   1.471       .  S
C238        H240   1.082       .  S
N241        N242   1.320       .  A
N241        C245   1.349       .  A
N241       Cu249   2.076   1_565  S
N242        C243   1.340       .  A
N242       Cu248   2.059       .  S
C243        C244   1.379   1_554  A
C243        H246   1.082       .  S
C244        C245   1.385   1_556  A
C245        H247   1.082       .  S
Cu248       N251   2.059       .  S
Cu249       N259   2.079       .  S
Cu250       N252   2.082   1_545  S
Cu250       N258   2.084       .  S
N251        N252   1.320       .  A
N251        C255   1.339       .  A
N252        C253   1.351   1_565  A
C253        C254   1.388   1_545  A
C253        H256   1.082       .  S
C254        C255   1.381       .  A
C254        C278   1.474   1_655  S
C255        H257   1.082       .  S
N258        N259   1.326       .  A
N258        C262   1.345       .  A
N259        C260   1.345       .  A
C260        C261   1.382       .  A
C260        H263   1.082       .  S
C261        C262   1.381       .  A
C261        C501   1.475       .  S
C262        H264   1.082       .  S
N265        N266   1.321       .  A
N265        C269   1.350       .  A
N265       Cu273   2.079   1_565  S
N266        C267   1.340       .  A
N266       Cu272   2.062       .  S
C267        C268   1.380   1_554  A
C267        H270   1.082       .  S
C268        C269   1.386   1_556  A
C269        H271   1.082   1_554  S
Cu272       N275   2.062       .  S
Cu273       N283   2.081       .  S
Cu274       N276   2.080   1_545  S
Cu274       N282   2.082       .  S
N275        N276   1.320       .  A
N275        C279   1.340       .  A
N276        C277   1.350       .  A
C277        C278   1.388       .  A
C277        H280   1.082   1_565  S
C278        C279   1.382       .  A
C279        H281   1.082       .  S
N282        N283   1.324       .  A
N282        C286   1.343       .  A
N283        C284   1.344       .  A
C284        C285   1.388       .  A
C284        H287   1.084       .  S
C285        C286   1.388       .  A
C285        C492   1.490       .  S
C286        H288   1.083       .  S
N289        N290   1.321       .  A
N289        C293   1.351       .  A
N289       Cu297   2.083       .  S
N290        C291   1.340       .  A
N290       Cu296   2.061       .  S
C291        C292   1.380       .  A
C291        H294   1.082       .  S
C292        C293   1.387       .  A
C292        C340   1.469       .  S
C293        H295   1.082       .  S
Cu296       N299   2.061       .  S
Cu297       N307   2.085       .  S
Cu298       N300   2.074       .  S
Cu298       N306   2.076       .  S
N299        N300   1.320       .  A
N299        C303   1.340       .  A
N300        C301   1.349       .  A
C301        C302   1.387       .  A
C301        H304   1.082       .  S
C302        C303   1.382       .  A
C302        C326   1.472   1_655  S
C303        H305   1.082       .  S
N306        N307   1.324       .  A
N306        C310   1.343       .  A
N307        C308   1.346       .  A
C308        C309   1.387       .  A
C308        H311   1.082       .  S
C309        C310   1.384       .  A
C309        C477   1.485       .  S
C310        H312   1.081       .  S
N313        N314   1.321       .  A
N313        C317   1.349       .  A
N313       Cu321   2.075       .  S
N314        C315   1.340       .  A
N314       Cu320   2.061       .  S
C315        C316   1.380       .  A
C315        H318   1.082       .  S
C316        C317   1.384       .  A
C316        C364   1.465       .  S
C317        H319   1.082       .  S
Cu320       N323   2.060       .  S
Cu321       N331   2.077       .  S
Cu322       N324   2.077       .  S
Cu322       N330   2.079       .  S
N323        N324   1.320       .  A
N323        C327   1.340       .  A
N324        C325   1.349       .  A
C325        C326   1.387       .  A
C325        H328   1.082       .  S
C326        C327   1.381       .  A
C327        H329   1.082       .  S
N330        N331   1.323       .  A
N330        C334   1.343       .  A
N331        C332   1.344       .  A
C332        C333   1.387       .  A
C332        H335   1.081       .  S
C333        C334   1.387       .  A
C333        C465   1.487       .  S
C334        H336   1.082       .  S
N337        N338   1.321       .  A
N337        C341   1.351       .  A
N337       Cu345   2.083       .  S
N338        C339   1.340       .  A
N338       Cu344   2.061       .  S
C339        C340   1.379   1_554  A
C339        H342   1.082       .  S
C340        C341   1.387   1_556  A
C341        H343   1.082       .  S
Cu344       N347   2.061       .  S
Cu345       N355   2.085       .  S
Cu346       N348   2.073       .  S
Cu346       N354   2.075       .  S
N347        N348   1.320       .  A
N347        C351   1.340       .  A
N348        C349   1.348       .  A
C349        C350   1.386       .  A
C349        H352   1.082       .  S
C350        C351   1.382       .  A
C350        C374   1.472   1_655  S
C351        H353   1.082       .  S
N354        N355   1.323       .  A
N354        C358   1.342       .  A
N355        C356   1.346       .  A
C356        C357   1.389       .  A
C356        H359   1.080       .  S
C357        C358   1.385       .  A
C357        C453   1.490       .  S
C358        H360   1.082       .  S
N361        N362   1.321       .  A
N361        C365   1.349       .  A
N361       Cu369   2.076       .  S
N362        C363   1.340       .  A
N362       Cu368   2.060       .  S
C363        C364   1.379   1_554  A
C363        H366   1.082       .  S
C364        C365   1.385   1_556  A
C365        H367   1.082       .  S
Cu368       N371   2.060       .  S
Cu369       N379   2.078       .  S
Cu370       N372   2.075       .  S
Cu370       N378   2.077       .  S
N371        N372   1.320       .  A
N371        C375   1.340       .  A
N372        C373   1.349       .  A
C373        C374   1.387       .  A
C373        H376   1.082       .  S
C374        C375   1.381       .  A
C375        H377   1.082       .  S
N378        N379   1.324       .  A
N378        C382   1.344       .  A
N379        C380   1.345       .  A
C380        C381   1.383       .  A
C380        H383   1.082       .  S
C381        C382   1.382       .  A
C381        C444   1.477       .  S
C382        H384   1.082       .  S
O385       Cu393   2.006       .  S
O385        C395   1.277       .  A
O386       Cu393   2.001       .  S
O386        C396   1.276       .  A
O387       Cu393   2.011       .  S
O387        C397   1.278       .  A
O388       Cu393   2.011       .  S
O388        C398   1.277       .  A
O389       Cu394   2.007       .  S
O389        C398   1.276       .  A
O390       Cu394   2.009       .  S
O390        C397   1.276       .  A
O391       Cu394   2.011       .  S
O391        C396   1.279       .  A
O392       Cu394   2.009       .  S
O392        C395   1.279       .  A
Cu393      Cu394   2.375       .  S
C395        C624   1.479       .  S
C396        C468   1.479       .  S
C397        C516   1.468       .  S
C398        C552   1.468       .  S
O399       Cu407   1.999       .  S
O399        C409   1.276       .  A
O400       Cu407   2.001       .  S
O400        C410   1.276       .  A
O401       Cu407   2.011       .  S
O401        C411   1.279       .  A
O402       Cu407   2.013       .  S
O402        C412   1.280       .  A
O403       Cu408   2.001       .  S
O403        C412   1.276       .  A
O404       Cu408   2.005       .  S
O404        C411   1.276       .  A
O405       Cu408   2.010       .  S
O405        C410   1.277       .  A
O406       Cu408   2.012       .  S
O406        C409   1.278       .  A
Cu407      Cu408   2.369       .  S
C409        C528   1.469       .  S
C410        C537   1.469       .  S
C411        C612   1.493       .  S
C412        C480   1.489       .  S
O413       Cu421   2.006       .  S
O413        C423   1.277       .  A
O414       Cu421   2.002       .  S
O414        C424   1.278       .  A
O415       Cu421   2.005       .  S
O415        C425   1.277       .  A
O416       Cu421   2.011       .  S
O416        C426   1.277       .  A
O417       Cu422   2.009       .  S
O417        C426   1.277       .  A
O418       Cu422   2.011       .  S
O418        C425   1.279       .  A
O419       Cu422   2.007       .  S
O419        C424   1.278       .  A
O420       Cu422   2.005       .  S
O420        C423   1.277       .  A
Cu421      Cu422   2.374       .  S
C423        C588   1.473       .  S
C424        C441   1.480       .  S
C425        C489   1.481       .  S
C426        C573   1.468       .  S
O427       Cu435   2.004       .  S
O427        C437   1.277       .  A
O428       Cu435   2.007       .  S
O428        C438   1.279       .  A
O429       Cu435   2.009       .  S
O429        C439   1.278       .  A
O430       Cu435   2.009       .  S
O430        C440   1.277       .  A
O431       Cu436   2.004       .  S
O431        C440   1.276       .  A
O432       Cu436   2.004       .  S
O432        C439   1.277       .  A
O433       Cu436   2.008       .  S
O433        C438   1.276       .  A
O434       Cu436   2.007       .  S
O434        C437   1.278       .  A
Cu435      Cu436   2.370       .  S
C437        C600   1.476       .  S
C438        C456   1.493       .  S
C439        C504   1.477       .  S
C440        C564   1.470       .  S
C441        C442   1.405       .  A
C441        C446   1.415       .  A
C442        C443   1.397       .  A
C442        H451   1.083       .  S
C443        C444   1.412       .  A
C443        S447   1.803       .  S
C444        C445   1.403       .  A
C445        C446   1.399       .  A
C445        H452   1.083       .  S
C446        S448   1.803       .  S
S447        H450   1.407       .  S
S448        H449   1.408       .  S
C453        C454   1.405       .  A
C453        C458   1.416       .  A
C454        C455   1.399       .  A
C454        H463   1.083       .  S
C455        C456   1.420       .  A
C455        S459   1.802       .  S
C456        C457   1.408       .  A
C457        C458   1.399       .  A
C457        H464   1.083       .  S
C458        S460   1.801       .  S
S459        H462   1.404       .  S
S460        H461   1.407       .  S
C465        C466   1.405       .  A
C465        C470   1.416       .  A
C466        C467   1.398       .  A
C466        H475   1.083       .  S
C467        C468   1.415       .  A
C467        S471   1.805       .  S
C468        C469   1.404       .  A
C469        C470   1.399       .  A
C469        H476   1.084       .  S
C470        S472   1.802       .  S
S471        H474   1.399       .  S
S472        H473   1.407       .  S
C477        C478   1.403       .  A
C477        C482   1.414       .  A
C478        C479   1.398       .  A
C478        H487   1.083       .  S
C479        C480   1.419       .  A
C479        S483   1.802       .  S
C480        C481   1.407       .  A
C481        C482   1.403       .  A
C481        H488   1.082       .  S
C482        S484   1.808       .  S
S483        H486   1.405       .  S
S484        H485   1.407       .  S
C489        C490   1.404       .  A
C489        C494   1.413       .  A
C490        C491   1.400       .  A
C490        H499   1.085       .  S
C491        C492   1.418       .  A
C491        S495   1.802       .  S
C492        C493   1.407       .  A
C493        C494   1.398       .  A
C493        H500   1.083       .  S
C494        S496   1.803       .  S
S495        H498   1.407       .  S
S496        H497   1.407       .  S
C501        C502   1.402       .  A
C501        C506   1.413       .  A
C502        C503   1.399       .  A
C502        H511   1.084       .  S
C503        C504   1.415       .  A
C503        S507   1.804       .  S
C504        C505   1.403       .  A
C505        C506   1.399       .  A
C505        H512   1.084       .  S
C506        S508   1.803       .  S
S507        H510   1.407       .  S
S508        H509   1.407       .  S
C513        C514   1.402       .  A
C513        C518   1.412       .  A
C514        C515   1.397       .  A
C514        H523   1.084       .  S
C515        C516   1.409       .  A
C515        S519   1.801       .  S
C516        C517   1.403       .  A
C517        C518   1.400       .  A
C517        H524   1.083       .  S
C518        S520   1.804       .  S
S519        H522   1.405       .  S
S520        H521   1.406       .  S
C525        C526   1.402       .  A
C525        C530   1.410       .  A
C526        C527   1.399       .  A
C526        H535   1.084       .  S
C527        C528   1.410       .  A
C527        S531   1.802       .  S
C528        C529   1.403       .  A
C529        C530   1.398       .  A
C529        H536   1.084       .  S
C530        S532   1.804       .  S
S531        H534   1.407       .  S
S532        H533   1.406       .  S
C537        C538   1.400       .  A
C537        C542   1.412       .  A
C538        C539   1.399       .  A
C538        H547   1.084       .  S
C539        C540   1.415       .  A
C539        S543   1.803       .  S
C540        C541   1.403       .  A
C541        C542   1.400       .  A
C541        H548   1.084       .  S
C542        S544   1.803       .  S
S543        H546   1.407       .  S
S544        H545   1.404       .  S
C549        C550   1.402       .  A
C549        C554   1.413       .  A
C550        C551   1.400       .  A
C550        H559   1.084       .  S
C551        C552   1.413       .  A
C551        S555   1.804       .  S
C552        C553   1.400       .  A
C553        C554   1.399       .  A
C553        H560   1.084       .  S
C554        S556   1.803       .  S
S555        H558   1.403       .  S
S556        H557   1.406       .  S
C561        C562   1.403       .  A
C561        C566   1.416       .  A
C562        C563   1.398       .  A
C562        H571   1.084       .  S
C563        C564   1.411       .  A
C563        S567   1.798       .  S
C564        C565   1.400       .  A
C565        C566   1.399       .  A
C565        H572   1.084       .  S
C566        S568   1.802       .  S
S567        H570   1.406       .  S
S568        H569   1.407       .  S
C573        C574   1.400       .  A
C573        C578   1.412       .  A
C574        C575   1.399       .  A
C574        H583   1.083       .  S
C575        C576   1.413       .  A
C575        S579   1.803       .  S
C576        C577   1.402       .  A
C577        C578   1.400       .  A
C577        H584   1.084       .  S
C578        S580   1.802       .  S
S579        H582   1.406       .  S
S580        H581   1.405       .  S
C585        C586   1.406       .  A
C585        C590   1.416       .  A
C586        C587   1.398       .  A
C586        H595   1.083       .  S
C587        C588   1.411       .  A
C587        S591   1.804       .  S
C588        C589   1.402       .  A
C589        C590   1.399       .  A
C589        H596   1.084       .  S
C590        S592   1.803       .  S
S591        H594   1.405       .  S
S592        H593   1.407       .  S
C597        C598   1.403       .  A
C597        C602   1.411       .  A
C598        C599   1.399       .  A
C598        H607   1.083       .  S
C599        C600   1.413       .  A
C599        S603   1.803       .  S
C600        C601   1.404       .  A
C601        C602   1.398       .  A
C601        H608   1.084       .  S
C602        S604   1.804       .  S
S603        H606   1.408       .  S
S604        H605   1.407       .  S
C609        C610   1.404       .  A
C609        C614   1.416       .  A
C610        C611   1.399       .  A
C610        H619   1.084       .  S
C611        C612   1.420       .  A
C611        S615   1.801       .  S
C612        C613   1.408       .  A
C613        C614   1.400       .  A
C613        H620   1.083       .  S
C614        S616   1.801       .  S
S615        H618   1.408       .  S
S616        H617   1.407       .  S
C621        C622   1.405       .  A
C621        C626   1.417       .  A
C622        C623   1.400       .  A
C622        H631   1.084       .  S
C623        C624   1.416       .  A
C623        S627   1.804       .  S
C624        C625   1.402       .  A
C625        C626   1.398       .  A
C625        H632   1.084       .  S
C626        S628   1.802       .  S
S627        H630   1.405       .  S
S628        H629   1.407       .  S
