geometry optimzed in LAMMPS
_audit_creation_date              2020-11-30 
_audit_creation_method            'lammps2cif' 
_symmetry_space_group_name_H-M    'P1' 
_symmetry_Int_Tables_number       1 
_symmetry_cell_setting            triclinic 
loop_ 
_symmetry_equiv_pos_as_xyz 
  x,y,z 
_cell_length_a                    73.91123451 
_cell_length_b                    73.98486523340078 
_cell_length_c                    73.99719914903795 
_cell_angle_alpha                 89.97940475464051 
_cell_angle_beta                  89.96152418485832 
_cell_angle_gamma                 90.04465813641708 
loop_ 
_atom_site_label 
_atom_site_type_symbol 
_atom_site_fract_x 
_atom_site_fract_y 
_atom_site_fract_z 
_atom_site_charge 
N1          N  0.46506236  0.37379814  0.00329346    -0.27400
N2          N  0.47501551  0.38827375  0.00658272    -0.35300
C3          C  0.46412588  0.40261967  0.00873517     0.00900
C4          C  0.44638183  0.39709568  0.00655359     0.06900
C5          C  0.44744744  0.37865787  0.00316689    -0.06200
H6          H  0.46879850  0.41615580  0.01172146     0.07600
H7          H  0.43628326  0.36939331  0.00128463     0.08800
Cu8        Cu  0.50303011  0.38833296  0.00773959     0.44200
Cu9        Cu  0.47665211  0.34830835  0.99984102     0.42000
Cu10       Cu  0.52694221  0.34794144  0.99743878     0.43900
N11         N  0.53098129  0.38721023  0.00582089    -0.34800
N12         N  0.54006002  0.37247668  0.00145336    -0.29100
C13         C  0.55791807  0.37634693  0.00123060    -0.05200
C14         C  0.56006997  0.39442893  0.00573773     0.07000
C15         C  0.54269859  0.40077827  0.00861323     0.00800
H16         H  0.56850334  0.36660194  0.99863418     0.08500
H17         H  0.53886172  0.41432221  0.01257538     0.07600
N18         N  0.51050452  0.32512438  0.99634191    -0.36300
N19         N  0.49260683  0.32515470  0.99725200    -0.28400
C20         C  0.48667570  0.30794027  0.99682768    -0.03700
C21         C  0.50149262  0.29654094  0.99546339     0.04900
C22         C  0.51634348  0.30793780  0.99536356     0.03000
H23         H  0.47262855  0.30402173  0.99803524     0.08100
H24         H  0.53042707  0.30401315  0.99481975     0.07000
N25         N  0.50215008  0.14154596  0.95987850    -0.27400
N26         N  0.50081993  0.12656041  0.96948629    -0.35300
C27         C  0.50050192  0.11228241  0.95835524     0.00900
C28         C  0.50190900  0.11845269  0.94081535     0.06900
C29         C  0.50289768  0.13713258  0.94218702    -0.06200
H30         H  0.49929089  0.09837377  0.96272129     0.07600
H31         H  0.50362012  0.14675484  0.93120240     0.08800
Cu32       Cu  0.49991314  0.12588730  0.99729844     0.44200
Cu33       Cu  0.50219327  0.16676081  0.97233521     0.42000
Cu34       Cu  0.50313301  0.16639978  0.02308803     0.43900
N35         N  0.50160948  0.12595395  0.02508772    -0.34800
N36         N  0.50275681  0.14070134  0.03508098    -0.29100
C37         C  0.50401922  0.13571403  0.05262931    -0.05200
C38         C  0.50402688  0.11692900  0.05347432     0.07000
C39         C  0.50225871  0.11132794  0.03576320     0.00800
H40         H  0.50519207  0.14499527  0.06385877     0.08500
H41         H  0.50146552  0.09754577  0.03093921     0.07600
N42         N  0.50319805  0.18958504  0.00671073    -0.36300
N43         N  0.50247214  0.18959173  0.98880414    -0.28400
C44         C  0.50229141  0.20678580  0.98287450    -0.03700
C45         C  0.50325361  0.21821952  0.99761386     0.04900
C46         C  0.50368133  0.20685091  0.01250791     0.03000
H47         H  0.50170050  0.21068805  0.96879417     0.08100
H48         H  0.50398736  0.21082834  0.02656964     0.07000
N49         N  0.53884050  0.99479925  0.36201617    -0.27400
N50         N  0.52926920  0.99263170  0.37696441    -0.35300
C51         C  0.54049700  0.99066281  0.39106554     0.00900
C52         C  0.55806764  0.99189301  0.38488973     0.06900
C53         C  0.55659081  0.99450591  0.36635884    -0.06200
H54         H  0.53615973  0.98891700  0.40492883     0.07600
H55         H  0.56755656  0.99598354  0.35678510     0.08800
Cu56       Cu  0.50138926  0.99362763  0.37826158     0.44200
Cu57       Cu  0.52652173  0.99773250  0.33670400     0.42000
Cu58       Cu  0.47603531  0.99782758  0.33792893     0.43900
N59         N  0.47362423  0.99665842  0.37827273    -0.34800
N60         N  0.46382651  0.99787342  0.36340703    -0.29100
C61         C  0.44627868  0.99995039  0.36810065    -0.05200
C62         C  0.44519810  0.00042943  0.38683396     0.07000
C63         C  0.46278051  0.99812681  0.39275089     0.00800
H64         H  0.43523378  0.00145600  0.35863904     0.08500
H65         H  0.46737860  0.99755155  0.40661638     0.07600
N66         N  0.49180217  0.99948737  0.31450732    -0.36300
N67         N  0.50972515  0.99949323  0.31395310    -0.28400
C68         C  0.51505308  0.00083604  0.29656231    -0.03700
C69         C  0.49982834  0.00201907  0.28566735     0.04900
C70         C  0.48537629  0.00090789  0.29754704     0.03000
H71         H  0.52901191  0.00107460  0.29216333     0.08100
H72         H  0.47115966  0.00083906  0.29412064     0.07000
N73         N  0.49442436  0.96709633  0.12950828    -0.27400
N74         N  0.49413143  0.97705705  0.11468709    -0.35300
C75         C  0.49571119  0.96630949  0.10017842     0.00900
C76         C  0.49688160  0.94860441  0.10596305     0.06900
C77         C  0.49606227  0.94953748  0.12470743    -0.06200
H78         H  0.49642368  0.97108956  0.08637343     0.07600
H79         H  0.49733111  0.93841765  0.13411291     0.08800
Cu80       Cu  0.49305846  0.00495996  0.11451763     0.44200
Cu81       Cu  0.49400021  0.97906630  0.15513892     0.42000
Cu82       Cu  0.49297612  0.02973060  0.15583382     0.43900
N83         N  0.49439236  0.03284382  0.11545262    -0.34800
N84         N  0.49430837  0.04237594  0.13054315    -0.29100
C85         C  0.49630531  0.06004264  0.12629085    -0.05200
C86         C  0.49773596  0.06154629  0.10760132     0.07000
C87         C  0.49652728  0.04399319  0.10130840     0.00800
H88         H  0.49736944  0.07084574  0.13607317     0.08500
H89         H  0.49747343  0.03959006  0.08739541     0.07600
N90         N  0.49373632  0.01306200  0.17873154    -0.36300
N91         N  0.49435614  0.99515320  0.17844362    -0.28400
C92         C  0.49570007  0.98904577  0.19554478    -0.03700
C93         C  0.49610658  0.00370618  0.20719926     0.04900
C94         C  0.49457312  0.01868032  0.19604498     0.03000
H95         H  0.49629495  0.97490881  0.19920913     0.08100
H96         H  0.49454643  0.03269941  0.20019551     0.07000
N97         N  0.50637185  0.87225485  0.95620756    -0.27400
N98         N  0.50745494  0.88704105  0.96614736    -0.35300
C99         C  0.50843606  0.90153545  0.95532067     0.00900
C100        C  0.50773284  0.89575583  0.93760512     0.06900
C101        C  0.50648001  0.87704858  0.93859543    -0.06200
H102        H  0.50938737  0.91535019  0.96002681     0.07600
H103        H  0.50594725  0.86765397  0.92741397     0.08800
Cu104      Cu  0.50707316  0.88731135  0.99397008     0.44200
Cu105      Cu  0.50510622  0.84668421  0.96804663     0.42000
Cu106      Cu  0.50567403  0.84650305  0.01880546     0.43900
N107        N  0.50599985  0.88672958  0.02177075    -0.34800
N108        N  0.50546342  0.87174526  0.03144647    -0.29100
C109        C  0.50488341  0.87624782  0.04914679    -0.05200
C110        C  0.50537542  0.89498432  0.05046156     0.07000
C111        C  0.50583208  0.90107009  0.03282182     0.00800
H112        H  0.50442393  0.86666663  0.06018243     0.08500
H113        H  0.50598796  0.91497684  0.02830418     0.07600
N114        N  0.50484956  0.82362837  0.00224180    -0.36300
N115        N  0.50438285  0.82362510  0.98433141    -0.28400
C116        C  0.50337661  0.80640219  0.97848900    -0.03700
C117        C  0.50346359  0.79501175  0.99334483     0.04900
C118        C  0.50423607  0.80643589  0.00813836     0.03000
H119        H  0.50275372  0.80244949  0.96442711     0.08100
H120        H  0.50398049  0.80257823  0.02223157     0.07000
N121        N  0.45778956  0.64114407  0.00100796    -0.27400
N122        N  0.46720909  0.62619844  0.00361089    -0.35300
C123        C  0.45584330  0.61220071  0.00549609     0.00900
C124        C  0.43832912  0.61845573  0.00387598     0.06900
C125        C  0.43998825  0.63694206  0.00105696    -0.06200
H126        H  0.46003080  0.59842832  0.00808445     0.07600
H127        H  0.42912755  0.64663901  0.99973032     0.08800
Cu128      Cu  0.49509178  0.62505615  0.00483760     0.44200
Cu129      Cu  0.47056160  0.66618294  0.99844423     0.42000
Cu130      Cu  0.52134931  0.66471183  0.99967065     0.43900
N131        N  0.52302286  0.62467849  0.00450471    -0.34800
N132        N  0.53316683  0.63922228  0.00245274    -0.29100
C133        C  0.55071505  0.63411183  0.00185343    -0.05200
C134        C  0.55151907  0.61539679  0.00369628     0.07000
C135        C  0.53364691  0.61002145  0.00527620     0.00800
H136        H  0.56190616  0.64323453  0.99950684     0.08500
H137        H  0.52866348  0.59632384  0.00654195     0.07600
N138        N  0.50557990  0.68799386  0.99687106    -0.36300
N139        N  0.48766315  0.68858739  0.99637017    -0.28400
C140        C  0.48240362  0.70594516  0.99466157    -0.03700
C141        C  0.49767855  0.71680196  0.99391551     0.04900
C142        C  0.51206367  0.70493178  0.99552229     0.03000
H143        H  0.46845621  0.71033920  0.99456013     0.08100
H144        H  0.52628600  0.70838330  0.99581657     0.07000
N145        N  0.86658409  0.50465678  0.95850558    -0.27400
N146        N  0.88155111  0.50388200  0.96819956    -0.35300
C147        C  0.89587050  0.50304799  0.95710436     0.00900
C148        C  0.88975388  0.50344637  0.93945346     0.06900
C149        C  0.87103627  0.50435707  0.94082508    -0.06200
H150        H  0.90979432  0.50247763  0.96158497     0.07600
H151        H  0.86136881  0.50458008  0.92987093     0.08800
Cu152      Cu  0.88209056  0.50475602  0.99603098     0.44200
Cu153      Cu  0.84122519  0.50648561  0.97059282     0.42000
Cu154      Cu  0.84087022  0.51108033  0.02069689     0.43900
N155        N  0.88123866  0.50783125  0.02369856    -0.34800
N156        N  0.86625512  0.51012269  0.03317997    -0.29100
C157        C  0.87076453  0.51224196  0.05075404    -0.05200
C158        C  0.88948341  0.51154113  0.05213321     0.07000
C159        C  0.89557634  0.50856769  0.03475887     0.00800
H160        H  0.86122607  0.51462084  0.06158493     0.08500
H161        H  0.90949480  0.50724473  0.03041351     0.07600
N162        N  0.81787896  0.51138396  0.00415565    -0.36300
N163        N  0.81805454  0.50942375  0.98635876    -0.28400
C164        C  0.80091961  0.50972089  0.98020793    -0.03700
C165        C  0.78935074  0.51225776  0.99470165     0.04900
C166        C  0.80059005  0.51310365  0.00967844     0.03000
H167        H  0.79715006  0.50820842  0.96616326     0.08100
H168        H  0.79648828  0.51436816  0.02365058     0.07000
N169        N  0.63206399  0.54351893  0.00493682    -0.27400
N170        N  0.61823647  0.53301782  0.00920163    -0.35300
C171        C  0.60305071  0.54293180  0.00970273     0.00900
C172        C  0.60729806  0.56059722  0.00529838     0.06900
C173        C  0.62591783  0.56057569  0.00263111    -0.06200
H174        H  0.58975748  0.53752193  0.01258318     0.07600
H175        H  0.63420820  0.57192074  0.99855316     0.08800
Cu176      Cu  0.61987376  0.50528308  0.01218468     0.44200
Cu177      Cu  0.65807952  0.53287427  0.00125929     0.42000
Cu178      Cu  0.66095193  0.48233909  0.00246207     0.43900
N179        N  0.62192409  0.47742658  0.01172689    -0.34800
N180        N  0.63686478  0.46855899  0.00760176    -0.29100
C181        C  0.63316809  0.45066312  0.00735577    -0.05200
C182        C  0.61508218  0.44830766  0.01190757     0.07000
C183        C  0.60843636  0.46559204  0.01435718     0.00800
H184        H  0.64283800  0.44020707  0.00404482     0.08500
H185        H  0.59458792  0.46935164  0.01723389     0.07600
N186        N  0.68277931  0.49985871  0.99864353    -0.36300
N187        N  0.68188660  0.51774546  0.99822971    -0.28400
C188        C  0.69874588  0.52437964  0.99605717    -0.03700
C189        C  0.71081180  0.51006402  0.99485772     0.04900
C190        C  0.70015568  0.49477047  0.99676441     0.03000
H191        H  0.70202053  0.53862653  0.99558158     0.08100
H192        H  0.70472861  0.48091031  0.99743632     0.07000
N193        N  0.99388177  0.53947575  0.36144425    -0.27400
N194        N  0.99228825  0.53000220  0.37649106    -0.35300
C195        C  0.99125365  0.54128110  0.39064304     0.00900
C196        C  0.99241785  0.55885288  0.38440043     0.06900
C197        C  0.99399386  0.55723010  0.36572738    -0.06200
H198        H  0.99006639  0.53696974  0.40456968     0.07600
H199        H  0.99494062  0.56808983  0.35598790     0.08800
Cu200      Cu  0.99209397  0.50214053  0.37743457     0.44200
Cu201      Cu  0.99550214  0.52674636  0.33623003     0.42000
Cu202      Cu  0.99344539  0.47614153  0.33703805     0.43900
N203        N  0.99279694  0.47427638  0.37730920    -0.34800
N204        N  0.99351824  0.46431723  0.36252402    -0.29100
C205        C  0.99388342  0.44670840  0.36730477    -0.05200
C206        C  0.99332670  0.44572057  0.38603527     0.07000
C207        C  0.99256458  0.46344692  0.39182364     0.00800
H208        H  0.99410015  0.43553477  0.35788654     0.08500
H209        H  0.99187662  0.46815403  0.40565018     0.07600
N210        N  0.99386096  0.49204788  0.31385216    -0.36300
N211        N  0.99518467  0.50991765  0.31345929    -0.28400
C212        C  0.99595681  0.51532249  0.29608437    -0.03700
C213        C  0.99473444  0.50023236  0.28509066     0.04900
C214        C  0.99351362  0.48574221  0.29680366     0.03000
H215        H  0.99725723  0.52923210  0.29175705     0.08100
H216        H  0.99290314  0.47158376  0.29321610     0.07000
N217        N  0.96295572  0.50694927  0.13006106    -0.27400
N218        N  0.97262124  0.50670963  0.11504738    -0.35300
C219        C  0.96160289  0.50873413  0.10080115     0.00900
C220        C  0.94402926  0.51011379  0.10700925     0.06900
C221        C  0.94533820  0.50898709  0.12569702    -0.06200
H222        H  0.96605011  0.50897482  0.08686746     0.07600
H223        H  0.93439096  0.50978111  0.13536904     0.08800
Cu224      Cu  0.00034151  0.50351218  0.11438648     0.44200
Cu225      Cu  0.97516537  0.50447115  0.15531409     0.42000
Cu226      Cu  0.02519629  0.49722228  0.15531869     0.43900
N227        N  0.02818438  0.50174910  0.11521888    -0.34800
N228        N  0.03772407  0.49938273  0.13012289    -0.29100
C229        C  0.05549714  0.50027639  0.12591232    -0.05200
C230        C  0.05702826  0.50339734  0.10746104     0.07000
C231        C  0.03944008  0.50426792  0.10123755     0.00800
H232        H  0.06638876  0.49967193  0.13564466     0.08500
H233        H  0.03511325  0.50717882  0.08757430     0.07600
N234        N  0.00882253  0.49816418  0.17832016    -0.36300
N235        N  0.99114317  0.50108954  0.17828755    -0.28400
C236        C  0.98522383  0.50162338  0.19547467    -0.03700
C237        C  0.99979580  0.49908284  0.20695615     0.04900
C238        C  0.01449596  0.49668887  0.19555007     0.03000
H239        H  0.97131112  0.50400018  0.19935030     0.08100
H240        H  0.02832360  0.49393740  0.19939497     0.07000
N241        N  0.36244413  0.54313139  0.00503799    -0.27400
N242        N  0.37704767  0.53427343  0.01024762    -0.35300
C243        C  0.39060678  0.54600994  0.01287676     0.00900
C244        C  0.38435185  0.56325916  0.00940936     0.06900
C245        C  0.36645057  0.56093965  0.00415398    -0.06200
H246        H  0.40422221  0.54215925  0.01657487     0.07600
H247        H  0.35707452  0.57138326  0.00006189     0.08800
Cu248      Cu  0.37869217  0.50656135  0.01285861     0.44200
Cu249      Cu  0.33817237  0.52962714  0.99980098     0.42000
Cu250      Cu  0.34067661  0.47924677  0.00190166     0.43900
N251        N  0.37980874  0.47870248  0.01257038    -0.34800
N252        N  0.36602517  0.46826090  0.00810576    -0.29100
C253        C  0.37170444  0.45090752  0.00793733    -0.05200
C254        C  0.38987619  0.45051571  0.01280503     0.07000
C255        C  0.39449848  0.46844661  0.01541495     0.00800
H256        H  0.36335657  0.43947781  0.00424895     0.08500
H257        H  0.40781406  0.47378320  0.01829670     0.07600
N258        N  0.31698814  0.49424657  0.99780447    -0.36300
N259        N  0.31608847  0.51212032  0.99728575    -0.28400
C260        C  0.29862923  0.51706268  0.99569734    -0.03700
C261        C  0.28788459  0.50167426  0.99535427     0.04900
C262        C  0.30011980  0.48746994  0.99640029     0.03000
H263        H  0.29402944  0.53093783  0.99539586     0.08100
H264        H  0.29710679  0.47318472  0.99616066     0.07000
N265        N  0.13158838  0.51145875  0.95838801    -0.27400
N266        N  0.11718927  0.51449277  0.96851314    -0.35300
C267        C  0.10269778  0.51677672  0.95787639     0.00900
C268        C  0.10815049  0.51535507  0.94007510     0.06900
C269        C  0.12654832  0.51168551  0.94085781    -0.06200
H270        H  0.08910274  0.51901878  0.96280206     0.07600
H271        H  0.13558390  0.50952057  0.92956148     0.08800
Cu272      Cu  0.11747054  0.51507075  0.99633785     0.44200
Cu273      Cu  0.15705496  0.50747585  0.96980833     0.42000
Cu274      Cu  0.15800784  0.50415974  0.02006814     0.43900
N275        N  0.11879902  0.51358966  0.02410087    -0.34800
N276        N  0.13346222  0.50905963  0.03321504    -0.29100
C277        C  0.12929360  0.50845576  0.05098396    -0.05200
C278        C  0.11120423  0.51317630  0.05302265     0.07000
C279        C  0.10503245  0.51607285  0.03563031     0.00800
H280        H  0.13864805  0.50474239  0.06158505     0.08500
H281        H  0.09131189  0.51903992  0.03152760     0.07600
N282        N  0.18072036  0.50294686  0.00322607    -0.36300
N283        N  0.18040336  0.50457715  0.98539212    -0.28400
C284        C  0.19752397  0.50447999  0.97914002    -0.03700
C285        C  0.20920375  0.50275750  0.99366311     0.04900
C286        C  0.19805570  0.50160615  0.00867012     0.03000
H287        H  0.20118264  0.50560870  0.96503090     0.08100
H288        H  0.20227913  0.50043875  0.02261692     0.07000
N289        N  0.96115048  0.50720205  0.85923841    -0.27400
N290        N  0.97064194  0.51182669  0.87363092    -0.35300
C291        C  0.95993302  0.51176158  0.88821794     0.00900
C292        C  0.94279877  0.50670388  0.88293885     0.06900
C293        C  0.94388530  0.50407234  0.86439611    -0.06200
H294        H  0.96449613  0.51445341  0.90184314     0.07600
H295        H  0.93320442  0.49947487  0.85552774     0.08800
Cu296      Cu  0.99815463  0.51550098  0.87393397     0.44200
Cu297      Cu  0.97357278  0.50443123  0.83406723     0.42000
Cu298      Cu  0.02434649  0.50608352  0.83529417     0.43900
N299        N  0.02588587  0.51428790  0.87467268    -0.34800
N300        N  0.03600902  0.51034757  0.86052703    -0.29100
C301        C  0.05349698  0.50994105  0.86574853    -0.05200
C302        C  0.05421342  0.51373421  0.88413108     0.07000
C303        C  0.03644254  0.51649315  0.88921020     0.00800
H304        H  0.06477594  0.50737328  0.85680296     0.08500
H305        H  0.03148996  0.51962544  0.90261385     0.07600
N306        N  0.00854698  0.50419197  0.81206086    -0.36300
N307        N  0.99062197  0.50380963  0.81155506    -0.28400
C308        C  0.98526591  0.50357968  0.79416875    -0.03700
C309        C  0.00046387  0.50358886  0.78323309     0.04900
C310        C  0.01495298  0.50411540  0.79504085     0.03000
H311        H  0.97130107  0.50354819  0.78979722     0.08100
H312        H  0.02913510  0.50498427  0.79154318     0.07000
N313        N  0.00912649  0.54333344  0.62795469    -0.27400
N314        N  0.01280178  0.53350497  0.61351351    -0.35300
C315        C  0.01510499  0.54441902  0.59923915     0.00900
C316        C  0.01300047  0.56208919  0.60486361     0.06900
C317        C  0.00891762  0.56094579  0.62314111    -0.06200
H318        H  0.01798917  0.53977967  0.58568013     0.07600
H319        H  0.00633524  0.57205575  0.63228033     0.08800
Cu320      Cu  0.01449513  0.50569229  0.61335362     0.44200
Cu321      Cu  0.00538668  0.53146719  0.65325214     0.42000
Cu322      Cu  0.00751239  0.48110468  0.65398976     0.43900
N323        N  0.01407277  0.47784884  0.61429927    -0.34800
N324        N  0.01117926  0.46843450  0.62918216    -0.29100
C325        C  0.01111473  0.45068258  0.62500551    -0.05200
C326        C  0.01408489  0.44899518  0.60655355     0.07000
C327        C  0.01600662  0.46650230  0.60031576     0.00800
H328        H  0.00927462  0.43988455  0.63468848     0.08500
H329        H  0.01836277  0.47071738  0.58650721     0.07600
N330        N  0.00443462  0.49756445  0.67658503    -0.36300
N331        N  0.00357375  0.51544638  0.67640676    -0.28400
C332        C  0.00199105  0.52141146  0.69353162    -0.03700
C333        C  0.00170466  0.50661601  0.70502393     0.04900
C334        C  0.00344119  0.49177761  0.69377910     0.03000
H335        H  0.00170098  0.53551884  0.69732649     0.08100
H336        H  0.00408136  0.47773791  0.69782064     0.07000
N337        N  0.03537886  0.86908013  0.51769891    -0.27400
N338        N  0.02621613  0.88290233  0.52430017    -0.35300
C339        C  0.03743367  0.89702470  0.52641056     0.00900
C340        C  0.05459452  0.89206753  0.52075270     0.06900
C341        C  0.05280569  0.87410504  0.51547129    -0.06200
H342        H  0.03323674  0.91021528  0.53112348     0.07600
H343        H  0.06330426  0.86531993  0.51036523     0.08800
Cu344      Cu  0.99851206  0.88271775  0.52851396     0.44200
Cu345      Cu  0.02277886  0.84461620  0.51133128     0.42000
Cu346      Cu  0.97260717  0.84468196  0.51291805     0.43900
N347        N  0.97050586  0.88243320  0.52786458    -0.34800
N348        N  0.96076479  0.86883288  0.52158543    -0.29100
C349        C  0.94319121  0.87379864  0.52139714    -0.05200
C350        C  0.94191487  0.89142380  0.52778648     0.07000
C351        C  0.95950469  0.89629433  0.53190204     0.00800
H352        H  0.93224181  0.86530028  0.51673439     0.08500
H353        H  0.96409124  0.90934431  0.53665774     0.07600
N354        N  0.98847718  0.82213111  0.50667041    -0.36300
N355        N  0.00640158  0.82211818  0.50634939    -0.28400
C356        C  0.01221314  0.80515544  0.50326925    -0.03700
C357        C  0.99732128  0.79388076  0.50170554     0.04900
C358        C  0.98250749  0.80516131  0.50370351     0.03000
H359        H  0.02629609  0.80125435  0.50261758     0.08100
H360        H  0.96842348  0.80117282  0.50383727     0.07000
N361        N  0.00828079  0.63918325  0.53050618    -0.27400
N362        N  0.01136133  0.62441695  0.52097904    -0.35300
C363        C  0.01375511  0.61043001  0.53226485     0.00900
C364        C  0.01187452  0.61656564  0.54980897     0.06900
C365        C  0.00848565  0.63493643  0.54823927    -0.06200
H366        H  0.01616146  0.59665067  0.52799779     0.07600
H367        H  0.00636407  0.64447832  0.55910300     0.08800
Cu368      Cu  0.01025999  0.62358711  0.49308423     0.44200
Cu369      Cu  0.00362943  0.66389330  0.51804055     0.42000
Cu370      Cu  0.99902784  0.66413837  0.46814527     0.43900
N371        N  0.00440635  0.62378348  0.46576446    -0.34800
N372        N  0.00030372  0.63840528  0.45632391    -0.29100
C373        C  0.99638565  0.63336641  0.43921014    -0.05200
C374        C  0.99786809  0.61470587  0.43807841     0.07000
C375        C  0.00303098  0.60916091  0.45511616     0.00800
H376        H  0.99219977  0.64249221  0.42858635     0.08500
H377        H  0.00529378  0.59541126  0.45955794     0.07600
N378        N  0.99801855  0.68724403  0.48456726    -0.36300
N379        N  0.99959525  0.68686400  0.50238556    -0.28400
C380        C  0.99880747  0.70382782  0.50878778    -0.03700
C381        C  0.99653120  0.71565149  0.49446672     0.04900
C382        C  0.99620337  0.70461298  0.47926078     0.03000
H383        H  0.00005629  0.70731988  0.52292773     0.08100
H384        H  0.99541344  0.70888352  0.46531219     0.07000
N385        N  0.50454222  0.97052928  0.86063495    -0.27400
N386        N  0.50337055  0.97996058  0.87575535    -0.35300
C387        C  0.50392103  0.96874035  0.88995622     0.00900
C388        C  0.50566669  0.95129988  0.88364365     0.06900
C389        C  0.50582032  0.95281527  0.86493901    -0.06200
H390        H  0.50361731  0.97303979  0.90393108     0.07600
H391        H  0.50746220  0.94198056  0.85526790     0.08800
Cu392      Cu  0.50261084  0.00770969  0.87707840     0.44200
Cu393      Cu  0.50546752  0.98327212  0.83536465     0.42000
Cu394      Cu  0.50612911  0.03370038  0.83697614     0.43900
N395        N  0.50311785  0.03549820  0.87719621    -0.34800
N396        N  0.50472649  0.04549692  0.86249877    -0.29100
C397        C  0.50438996  0.06309483  0.86731436    -0.05200
C398        C  0.50216319  0.06399191  0.88590600     0.07000
C399        C  0.50160714  0.04626247  0.89167752     0.00800
H400        H  0.50518124  0.07432790  0.85798805     0.08500
H401        H  0.50007883  0.04150855  0.90542363     0.07600
N402        N  0.50600665  0.01822483  0.81342144    -0.36300
N403        N  0.50581963  0.00033099  0.81272479    -0.28400
C404        C  0.50540465  0.99519752  0.79524831    -0.03700
C405        C  0.50549811  0.01051400  0.78440404     0.04900
C406        C  0.50566326  0.02482461  0.79647521     0.03000
H407        H  0.50498436  0.98129330  0.79074510     0.08100
H408        H  0.50501542  0.03906181  0.79325500     0.07000
N409        N  0.53438725  0.01285672  0.62773733    -0.27400
N410        N  0.52434685  0.01121875  0.61306557    -0.35300
C411        C  0.53515839  0.00928601  0.59860818     0.00900
C412        C  0.55294920  0.00966406  0.60435896     0.06900
C413        C  0.55200923  0.01215950  0.62292268    -0.06200
H414        H  0.53040093  0.00753982  0.58489560     0.07600
H415        H  0.56324408  0.01282515  0.63225780     0.08800
Cu416      Cu  0.49635033  0.01097725  0.61334912     0.44200
Cu417      Cu  0.52266268  0.01462101  0.65336182     0.42000
Cu418      Cu  0.47212658  0.01242644  0.65534220     0.43900
N419        N  0.46842134  0.00991354  0.61503562    -0.34800
N420        N  0.45909441  0.01049314  0.63026972    -0.29100
C421        C  0.44133250  0.00839857  0.62635002    -0.05200
C422        C  0.43958356  0.00636501  0.60774632     0.07000
C423        C  0.45705129  0.00736853  0.60115570     0.00800
H424        H  0.43065826  0.00750304  0.63631427     0.08500
H425        H  0.46126701  0.00575036  0.58724338     0.07600
N426        N  0.48936860  0.01326982  0.67783314    -0.36300
N427        N  0.50726191  0.01428917  0.67706550    -0.28400
C428        C  0.51390166  0.01427284  0.69401276    -0.03700
C429        C  0.49964049  0.01290126  0.70607305     0.04900
C430        C  0.48428488  0.01246895  0.69531889     0.03000
H431        H  0.52815080  0.01477320  0.69731762     0.08100
H432        H  0.47039771  0.01166707  0.69985603     0.07000
N433        N  0.86555554  0.96636110  0.52205055    -0.27400
N434        N  0.87968296  0.97627112  0.52673029    -0.35300
C435        C  0.89353670  0.96529328  0.53092455     0.00900
C436        C  0.88794108  0.94756063  0.52885018     0.06900
C437        C  0.87016063  0.94874141  0.52297996    -0.06200
H438        H  0.90697250  0.96990912  0.53442835     0.07600
H439        H  0.86134479  0.93764036  0.51937019     0.08800
Cu440      Cu  0.88021239  0.00431138  0.52569287     0.44200
Cu441      Cu  0.84102055  0.97779864  0.51418964     0.42000
Cu442      Cu  0.84064651  0.02762466  0.51048769     0.43900
N443        N  0.87911127  0.03214474  0.52229536    -0.34800
N444        N  0.86475371  0.04087507  0.51623586    -0.29100
C445        C  0.86868286  0.05865499  0.51507776    -0.05200
C446        C  0.88626393  0.06118644  0.52106211     0.07000
C447        C  0.89247176  0.04406815  0.52532140     0.00800
H448        H  0.85940825  0.06895175  0.51041960     0.08500
H449        H  0.90586513  0.04049448  0.52999051     0.07600
N450        N  0.81819439  0.01110357  0.50676839    -0.36300
N451        N  0.81829521  0.99323971  0.50784314    -0.28400
C452        C  0.80134783  0.98709131  0.50519127    -0.03700
C453        C  0.79006530  0.00175160  0.50228094     0.04900
C454        C  0.80120182  0.01673083  0.50355229     0.03000
H455        H  0.79741399  0.97303646  0.50609093     0.08100
H456        H  0.79718573  0.03075226  0.50253020     0.07000
N457        N  0.63342813  0.00399367  0.53310517    -0.27400
N458        N  0.61885796  0.00371863  0.52279422    -0.35300
C459        C  0.60404690  0.00492784  0.53319049     0.00900
C460        C  0.60941573  0.00622504  0.55099994     0.06900
C461        C  0.62819476  0.00555105  0.55053620    -0.06200
H462        H  0.59030590  0.00451584  0.52816618     0.07600
H463        H  0.63728158  0.00555090  0.56198634     0.08800
Cu464      Cu  0.61951047  0.00072205  0.49513699     0.44200
Cu465      Cu  0.65918081  0.00134890  0.52181975     0.42000
Cu466      Cu  0.66118738  0.99589409  0.47132875     0.43900
N467        N  0.62086317  0.99659354  0.46765570    -0.34800
N468        N  0.63606665  0.99493040  0.45840484    -0.29100
C469        C  0.63191322  0.99254317  0.44077613    -0.05200
C470        C  0.61320226  0.99248393  0.43915943     0.07000
C471        C  0.60672375  0.99515380  0.45641581     0.00800
H472        H  0.64169922  0.99078848  0.43004673     0.08500
H473        H  0.59270268  0.99606206  0.46051213     0.07600
N474        N  0.68354163  0.99818806  0.48850444    -0.36300
N475        N  0.68276799  0.00003402  0.50630773    -0.28400
C476        C  0.69970383  0.00153738  0.51279885    -0.03700
C477        C  0.71176189  0.00086873  0.49848245     0.04900
C478        C  0.70101945  0.99848677  0.48332999     0.03000
H479        H  0.70295265  0.00284742  0.52698033     0.08100
H480        H  0.70557055  0.99733531  0.46948008     0.07000
N481        N  0.36273920  0.99642405  0.53389259    -0.27400
N482        N  0.37781402  0.99456815  0.52447954    -0.35300
C483        C  0.39191181  0.99343343  0.53581363     0.00900
C484        C  0.38560208  0.99447226  0.55337730     0.06900
C485        C  0.36698349  0.99664344  0.55167281    -0.06200
H486        H  0.40587810  0.99257730  0.53151270     0.07600
H487        H  0.35731077  0.99835317  0.56251300     0.08800
Cu488      Cu  0.37913517  0.99494741  0.49659525     0.44200
Cu489      Cu  0.33765406  0.99879722  0.52093890     0.42000
Cu490      Cu  0.33915107  0.99835664  0.47019579     0.43900
N491        N  0.37960696  0.99704527  0.46876088    -0.34800
N492        N  0.36495532  0.99802016  0.45859827    -0.29100
C493        C  0.37008073  0.99945862  0.44111772    -0.05200
C494        C  0.38887892  0.99946843  0.44043353     0.07000
C495        C  0.39435271  0.99802709  0.45822042     0.00800
H496        H  0.36087322  0.00089010  0.42985599     0.08500
H497        H  0.40812527  0.99777189  0.46316697     0.07600
N498        N  0.31562844  0.99959275  0.48591548    -0.36300
N499        N  0.31507894  0.00006130  0.50382492    -0.28400
C500        C  0.29765383  0.00101829  0.50913289    -0.03700
C501        C  0.28669193  0.00087637  0.49395370     0.04900
C502        C  0.29858075  0.00011953  0.47949770     0.03000
H503        H  0.29324844  0.00144450  0.52307106     0.08100
H504        H  0.29511517  0.00009775  0.46530088     0.07000
N505        N  0.13198950  0.96579855  0.50763199    -0.27400
N506        N  0.11792697  0.97595618  0.51186156    -0.35300
C507        C  0.10397754  0.96536734  0.51661613     0.00900
C508        C  0.10937286  0.94753065  0.51550968     0.06900
C509        C  0.12719792  0.94825291  0.50948749    -0.06200
H510        H  0.09064701  0.97032227  0.52004476     0.07600
H511        H  0.13597277  0.93690109  0.50668216     0.08800
Cu512      Cu  0.11756448  0.00373457  0.50983370     0.44200
Cu513      Cu  0.15666497  0.97751337  0.49996267     0.42000
Cu514      Cu  0.15605100  0.02796608  0.49429433     0.43900
N515        N  0.11707115  0.03111164  0.50471876    -0.34800
N516        N  0.13095696  0.04040901  0.49838683    -0.29100
C517        C  0.12579727  0.05780807  0.49621257    -0.05200
C518        C  0.10779721  0.05933343  0.50150960     0.07000
C519        C  0.10286163  0.04214656  0.50687665     0.00800
H520        H  0.13457680  0.06857136  0.49161612     0.08500
H521        H  0.08979465  0.03793413  0.51197652     0.07600
N522        N  0.17925033  0.01171005  0.49388372    -0.36300
N523        N  0.17947877  0.99387833  0.49570266    -0.28400
C524        C  0.19681506  0.98822829  0.49561225    -0.03700
C525        C  0.20808226  0.00312819  0.49395663     0.04900
C526        C  0.19642224  0.01773847  0.49268435     0.03000
H527        H  0.20096302  0.97430333  0.49725087     0.08100
H528        H  0.20011491  0.03179298  0.49109130     0.07000
N529        N  0.00752283  0.36993591  0.53492132    -0.27400
N530        N  0.01013314  0.38427576  0.52461705    -0.35300
C531        C  0.01373715  0.39861451  0.53505423     0.00900
C532        C  0.01358760  0.39314434  0.55289452     0.06900
C533        C  0.00930603  0.37487838  0.55239001    -0.06200
H534        H  0.01576727  0.41218892  0.53000243     0.07600
H535        H  0.00764205  0.36589946  0.56381283     0.08800
Cu536      Cu  0.00765623  0.38437605  0.49691760     0.44200
Cu537      Cu  0.00197638  0.34476452  0.52369543     0.42000
Cu538      Cu  0.99884496  0.34363526  0.47320584     0.43900
N539        N  0.00257308  0.38372768  0.46958059    -0.34800
N540        N  0.99947412  0.36874502  0.46038395    -0.29100
C541        C  0.99616124  0.37314919  0.44298567    -0.05200
C542        C  0.99697116  0.39181462  0.44144389     0.07000
C543        C  0.00114793  0.39801253  0.45851934     0.00800
H544        H  0.99288726  0.36358515  0.43242855     0.08500
H545        H  0.00282277  0.41193954  0.46266216     0.07600
N546        N  0.99788887  0.32111091  0.49020300    -0.36300
N547        N  0.99883076  0.32157171  0.50807813    -0.28400
C548        C  0.99810445  0.30456363  0.51446900    -0.03700
C549        C  0.99643498  0.29279455  0.50003577     0.04900
C550        C  0.99651849  0.30377294  0.48485991     0.03000
H551        H  0.99888420  0.30101364  0.52863064     0.08100
H552        H  0.99615912  0.29948991  0.47089684     0.07000
N553        N  0.95914629  0.13899261  0.51305122    -0.27400
N554        N  0.96860978  0.12416712  0.51610505    -0.35300
C555        C  0.95722853  0.11045491  0.51960370     0.00900
C556        C  0.93971255  0.11685160  0.51847718     0.06900
C557        C  0.94136785  0.13504494  0.51431315    -0.06200
H558        H  0.96137481  0.09664980  0.52206998     0.07600
H559        H  0.93051919  0.14461336  0.51218895     0.08800
Cu560      Cu  0.99646013  0.12282872  0.51351689     0.44200
Cu561      Cu  0.97167569  0.16345636  0.50728076     0.42000
Cu562      Cu  0.02167603  0.16260886  0.50151882     0.43900
N563        N  0.02391726  0.12263619  0.50797236    -0.34800
N564        N  0.03341565  0.13699663  0.50314748    -0.29100
C565        C  0.05082722  0.13199287  0.50070065    -0.05200
C566        C  0.05224904  0.11367151  0.50447095     0.07000
C567        C  0.03489600  0.10823107  0.50882221     0.00800
H568        H  0.06170212  0.14108264  0.49705068     0.08500
H569        H  0.03057033  0.09475738  0.51252719     0.07600
N570        N  0.00584010  0.18596964  0.50260870    -0.36300
N571        N  0.98799081  0.18614619  0.50426696    -0.28400
C572        C  0.98223333  0.20338214  0.50456930    -0.03700
C573        C  0.99710995  0.21462843  0.50334289     0.04900
C574        C  0.01184576  0.20315494  0.50200107     0.03000
H575        H  0.96823690  0.20743545  0.50591829     0.08100
H576        H  0.02588972  0.20700112  0.50053126     0.07000
C577        C  0.98511158  0.24339461  0.49095988    -0.09300
C578        C  0.99698961  0.23460177  0.50283618     0.06900
C579        C  0.00814931  0.24504934  0.51419920    -0.03100
C580        C  0.00767098  0.26393488  0.51311397    -0.07500
C581        C  0.99619701  0.27276975  0.50082078     0.06000
C582        C  0.98463041  0.26227791  0.48983897    -0.02500
Br583      Br  0.96693455  0.27279547  0.47404922    -0.02200
H584        H  0.97617112  0.23550995  0.48244763     0.09900
H585        H  0.01639942  0.27175580  0.52189351     0.07900
Br586      Br  0.02329006  0.23434150  0.53233636    -0.02700
C587        C  0.08599541  0.07799664  0.51860918    -0.09300
C588        C  0.09600474  0.07549740  0.50269043     0.06900
C589        C  0.09290793  0.08718482  0.48792613    -0.03100
C590        C  0.07927985  0.10040870  0.48902651    -0.07500
C591        C  0.06855972  0.10206150  0.50463217     0.06000
C592        C  0.07248751  0.09112652  0.51971811    -0.02500
Br593      Br  0.05993834  0.09362018  0.54231485    -0.02200
H594        H  0.08841029  0.06934620  0.53017664     0.09900
H595        H  0.07637158  0.10870477  0.47731935     0.07900
Br596      Br  0.10539154  0.08438213  0.46537494    -0.02700
C597        C  0.25751976  0.01448522  0.50395950    -0.09300
C598        C  0.26660777  0.00155117  0.49346431     0.06900
C599        C  0.25629975  0.98924951  0.48314524    -0.03100
C600        C  0.23734383  0.99004583  0.48351748    -0.07500
C601        C  0.22822297  0.00314543  0.49380279     0.06000
C602        C  0.23856207  0.01548394  0.50411134    -0.02500
Br603      Br  0.22773989  0.03315373  0.51971788    -0.02200
H604        H  0.26523080  0.02390460  0.51210415     0.09900
H605        H  0.22966489  0.98034710  0.47567903     0.07900
Br606      Br  0.26724764  0.97025589  0.46928287    -0.02700
C607        C  0.92068668  0.09575153  0.53609214    -0.09300
C608        C  0.92323159  0.10569684  0.52017044     0.06900
C609        C  0.91144333  0.10284507  0.50546629    -0.03100
C610        C  0.89846419  0.08900347  0.50632709    -0.07500
C611        C  0.89698074  0.07806557  0.52177869     0.06000
C612        C  0.90748032  0.08226320  0.53709833    -0.02500
Br613      Br  0.90408935  0.07014700  0.55979397    -0.02200
H614        H  0.92936378  0.09815534  0.54764170     0.09900
H615        H  0.89030944  0.08607722  0.49452596     0.07900
Br616      Br  0.91379314  0.11612870  0.48331637    -0.02700
C617        C  0.76002469  0.01390063  0.51108378    -0.09300
C618        C  0.77010261  0.00172289  0.50060793     0.06900
C619        C  0.76090407  0.98991334  0.48881464    -0.03100
C620        C  0.74195486  0.99003267  0.48817193    -0.07500
C621        C  0.73181931  0.00174656  0.49917108     0.06000
C622        C  0.74110121  0.01403368  0.51047369    -0.02500
Br623      Br  0.72897365  0.03221386  0.52446386    -0.02200
H624        H  0.76691521  0.02330593  0.51994578     0.09900
H625        H  0.73510160  0.98076780  0.47914102     0.07900
Br626      Br  0.77348313  0.97418331  0.47246834    -0.02700
C627        C  0.42521061  0.98686713  0.58477480    -0.09300
C628        C  0.42351837  0.00143044  0.59677767     0.06900
C629        C  0.40756090  0.01188985  0.59633159    -0.03100
C630        C  0.39453437  0.00872048  0.58281523    -0.07500
C631        C  0.39710478  0.99507545  0.56982533     0.06000
C632        C  0.41212757  0.98346514  0.57160985    -0.02500
Br633      Br  0.41544394  0.96252333  0.55664423    -0.02200
H634        H  0.43708623  0.97830605  0.58534198     0.09900
H635        H  0.38294340  0.01761309  0.58181781     0.07900
Br636      Br  0.40370681  0.03162256  0.61266396    -0.02700
C637        C  0.58419155  0.99219047  0.56782694    -0.09300
C638        C  0.59707535  0.00605976  0.56673182     0.06900
C639        C  0.59655484  0.02020907  0.57947808    -0.03100
C640        C  0.58261291  0.02076709  0.59240833    -0.07500
C641        C  0.56913648  0.00735309  0.59278459     0.06000
C642        C  0.57045366  0.99262408  0.58078426    -0.02500
Br643      Br  0.55409561  0.97248058  0.58174983    -0.02200
H644        H  0.58463596  0.98107644  0.55830286     0.09900
H645        H  0.58178046  0.03215286  0.60156939     0.07900
Br646      Br  0.61346319  0.03986604  0.57863872    -0.02700
C647        C  0.51235073  0.02429255  0.73509109    -0.09300
C648        C  0.50084312  0.01215778  0.72610983     0.06900
C649        C  0.49130698  0.99921755  0.73641066    -0.03100
C650        C  0.49310019  0.99889398  0.75527655    -0.07500
C651        C  0.50428916  0.01130362  0.76432994     0.06000
C652        C  0.51414214  0.02400200  0.75395588    -0.02500
Br653      Br  0.53137131  0.04037296  0.76440897    -0.02200
H654        H  0.52005535  0.03407433  0.72736260     0.09900
H655        H  0.48563609  0.98886989  0.76292200     0.07900
Br656      Br  0.47676587  0.98072727  0.72546137    -0.02700
C657        C  0.90046387  0.91941183  0.51526878    -0.09300
C658        C  0.89958515  0.93130702  0.53001615     0.06900
C659        C  0.91124045  0.92850372  0.54481315    -0.03100
C660        C  0.92424656  0.91478154  0.54415200    -0.07500
C661        C  0.92594926  0.90356492  0.52892577     0.06000
C662        C  0.91359213  0.90573305  0.51451731    -0.02500
Br663      Br  0.91533195  0.89219088  0.49248219    -0.02200
H664        H  0.89166692  0.92149355  0.50375145     0.09900
H665        H  0.93342345  0.91316284  0.55544782     0.07900
Br666      Br  0.90986879  0.94291691  0.56634109    -0.02700
C667        C  0.07266131  0.91693496  0.53419822    -0.09300
C668        C  0.07067529  0.90421512  0.52024215     0.06900
C669        C  0.08304034  0.90471396  0.50563287    -0.03100
C670        C  0.09642117  0.91820895  0.50493362    -0.07500
C671        C  0.09755805  0.93155485  0.51836487     0.06000
C672        C  0.08584508  0.93047393  0.53338094    -0.02500
Br673      Br  0.08726792  0.94700915  0.55333756    -0.02200
H674        H  0.06359185  0.91661440  0.54570095     0.09900
H675        H  0.10522775  0.91895660  0.49324861     0.07900
Br676      Br  0.08115833  0.88898363  0.48512105    -0.02700
C677        C  0.00762602  0.74400783  0.50867284    -0.09300
C678        C  0.99653984  0.73575490  0.49563453     0.06900
C679        C  0.98535750  0.74686409  0.48482850    -0.03100
C680        C  0.98583081  0.76573785  0.48695256    -0.07500
C681        C  0.99721288  0.77390469  0.49978214     0.06000
C682        C  0.00793172  0.76276966  0.51092631    -0.02500
Br683      Br  0.02195790  0.77212796  0.53065489    -0.02200
H684        H  0.01606966  0.73579647  0.51736042     0.09900
H685        H  0.97717641  0.77408625  0.47859930     0.07900
Br686      Br  0.96804497  0.73717283  0.46811852    -0.02700
C687        C  0.00280060  0.40489574  0.58257073    -0.09300
C688        C  0.01578167  0.40514089  0.56870704     0.06900
C689        C  0.02947546  0.41840216  0.56904239    -0.03100
C690        C  0.02911643  0.43194821  0.58213832    -0.07500
C691        C  0.01540902  0.43255433  0.59524044     0.06000
C692        C  0.00246612  0.41850819  0.59578238    -0.02500
Br693      Br  0.98282859  0.41830064  0.61274141    -0.02200
H694        H  0.99219483  0.39478133  0.58245472     0.09900
H695        H  0.03940337  0.44238702  0.58179812     0.07900
Br696      Br  0.04913548  0.41867877  0.55204842    -0.02700
C697        C  0.02803746  0.59333086  0.56739211    -0.09300
C698        C  0.01333928  0.60521892  0.56619804     0.06900
C699        C  0.99965197  0.60443055  0.57950012    -0.03100
C700        C  0.00028468  0.59097679  0.59289406    -0.07500
C701        C  0.01439428  0.57826880  0.59319691     0.06000
C702        C  0.02876467  0.58009001  0.58079430    -0.02500
Br703      Br  0.04989082  0.56501573  0.58159442    -0.02200
H704        H  0.03885043  0.59406358  0.55752156     0.09900
H705        H  0.98918831  0.58977082  0.60239098     0.07900
Br706      Br  0.97887494  0.61994242  0.57887195    -0.02700
C707        C  0.98948830  0.51632037  0.75412837    -0.09300
C708        C  0.00099825  0.50430430  0.76325037     0.06900
C709        C  0.01259272  0.49310063  0.75308897    -0.03100
C710        C  0.01263033  0.49421232  0.73421964    -0.07500
C711        C  0.00130676  0.50638850  0.72505887     0.06000
C712        C  0.98957490  0.51749682  0.73522889    -0.02500
Br713      Br  0.97240196  0.53352568  0.72422389    -0.02200
H714        H  0.98036769  0.52487161  0.76175613     0.09900
H715        H  0.02157978  0.48543857  0.72664656     0.07900
Br716      Br  0.02765867  0.47503648  0.76403650    -0.02700
C717        C  0.09697179  0.50300121  0.91076734    -0.09300
C718        C  0.09627182  0.51654931  0.92404186     0.06900
C719        C  0.08304203  0.53018915  0.92264082    -0.03100
C720        C  0.07007331  0.52936115  0.90898160    -0.07500
C721        C  0.07000302  0.51522641  0.89634610     0.06000
C722        C  0.08393545  0.50219240  0.89699391    -0.02500
Br723      Br  0.08478407  0.48195250  0.88082298    -0.02200
H724        H  0.10707074  0.49243914  0.91169085     0.09900
H725        H  0.05972639  0.53971348  0.90842907     0.07900
Br726      Br  0.08218873  0.55057644  0.93868925    -0.02700
C727        C  0.25858784  0.51457727  0.98466335    -0.09300
C728        C  0.26770178  0.50108825  0.99450657     0.06900
C729        C  0.25721972  0.48815246  0.00400353    -0.03100
C730        C  0.23827275  0.48890123  0.00335925    -0.07500
C731        C  0.22927681  0.50230636  0.99343699     0.06000
C732        C  0.23963994  0.51531985  0.98410551    -0.02500
Br733      Br  0.22876081  0.53539050  0.97177588    -0.02200
H734        H  0.26624502  0.52479695  0.97748494     0.09900
H735        H  0.23047285  0.47899555  0.01083474     0.07900
Br736      Br  0.26747672  0.47004560  0.01948290    -0.02700
C737        C  0.10133625  0.49847159  0.08182544    -0.09300
C738        C  0.09981693  0.51288384  0.06952646     0.06900
C739        C  0.08591224  0.52568828  0.07207202    -0.03100
C740        C  0.07269667  0.52276474  0.08522888    -0.07500
C741        C  0.07326129  0.50752115  0.09647895     0.06000
C742        C  0.08824191  0.49578274  0.09534446    -0.02500
Br743      Br  0.09054611  0.47498888  0.11063140    -0.02200
H744        H  0.11209043  0.48866168  0.08025393     0.09900
H745        H  0.06161543  0.53227576  0.08639754     0.07900
Br746      Br  0.08438358  0.54764329  0.05828981    -0.02700
C747        C  0.00580635  0.40239839  0.41074304    -0.09300
C748        C  0.99382140  0.40326349  0.42543637     0.06900
C749        C  0.98042642  0.41676733  0.42573434    -0.03100
C750        C  0.97990976  0.42979669  0.41211342    -0.07500
C751        C  0.99258809  0.42971688  0.39799410     0.06000
C752        C  0.00534196  0.41555394  0.39706378    -0.02500
Br753      Br  0.02374466  0.41471693  0.37879807    -0.02200
H754        H  0.01626973  0.39215482  0.41049912     0.09900
H755        H  0.96987009  0.44043595  0.41287546     0.07900
Br756      Br  0.96266929  0.41820199  0.44462105    -0.02700
C757        C  0.00588213  0.60290065  0.40757274    -0.09300
C758        C  0.99423446  0.60267593  0.42254831     0.06900
C759        C  0.98072322  0.58930142  0.42359215    -0.03100
C760        C  0.97977534  0.57577948  0.41042769    -0.07500
C761        C  0.99211223  0.57525496  0.39597733     0.06000
C762        C  0.00497645  0.58930728  0.39434217    -0.02500
Br763      Br  0.02304725  0.58951874  0.37573483    -0.02200
H764        H  0.01643316  0.61303955  0.40674130     0.09900
H765        H  0.96963833  0.56527895  0.41178806     0.07900
Br766      Br  0.96337569  0.58882292  0.44290662    -0.02700
C767        C  0.01076417  0.50781787  0.25660095    -0.09300
C768        C  0.99597290  0.49960031  0.26516243     0.06900
C769        C  0.98276405  0.49090069  0.25455329    -0.03100
C770        C  0.98438657  0.49081864  0.23569749    -0.07500
C771        C  0.99925488  0.49894621  0.22703665     0.06000
C772        C  0.01265573  0.50738182  0.23776804    -0.02500
Br773      Br  0.03333156  0.51952482  0.22779988    -0.02200
H774        H  0.02100802  0.51451842  0.26465074     0.09900
H775        H  0.97395032  0.48430256  0.22775105     0.07900
Br776      Br  0.96174459  0.47979065  0.26501179    -0.02700
C777        C  0.91646603  0.49110281  0.92365400    -0.09300
C778        C  0.90139133  0.50261169  0.92316406     0.06900
C779        C  0.89899962  0.51404987  0.90804445    -0.03100
C780        C  0.91196747  0.51419428  0.89416382    -0.07500
C781        C  0.92752527  0.50341846  0.89532723     0.06000
C782        C  0.92949645  0.49149693  0.91002935    -0.02500
Br783      Br  0.95000728  0.47574705  0.91246264    -0.02200
H784        H  0.91844175  0.48210041  0.93503274     0.09900
H785        H  0.91053261  0.52365636  0.88308050     0.07900
Br786      Br  0.87983785  0.53146819  0.90667170    -0.02700
C787        C  0.89950242  0.50152166  0.08273145    -0.09300
C788        C  0.90111455  0.51367033  0.06823608     0.06900
C789        C  0.91550056  0.52617101  0.06816424    -0.03100
C790        C  0.92872043  0.52543667  0.08160887    -0.07500
C791        C  0.92788742  0.51247901  0.09542376     0.06000
C792        C  0.91279273  0.50080437  0.09628725    -0.02500
Br793      Br  0.91077910  0.48223525  0.11427266    -0.02200
H794        H  0.88854867  0.49178520  0.08287644     0.09900
H795        H  0.94007643  0.53468622  0.08093278     0.07900
Br796      Br  0.91785796  0.54443257  0.04986494    -0.02700
C797        C  0.76014387  0.49961100  0.98367698    -0.09300
C798        C  0.76926368  0.51243753  0.99428596     0.06900
C799        C  0.75899220  0.52511265  0.00416423    -0.03100
C800        C  0.74004237  0.52431728  0.00383951    -0.07500
C801        C  0.73089969  0.51099579  0.99384553     0.06000
C802        C  0.74119953  0.49875942  0.98338892    -0.02500
Br803      Br  0.73035966  0.48127204  0.96757298    -0.02200
H804        H  0.76780945  0.49001052  0.97570844     0.09900
H805        H  0.73241772  0.53403293  0.01169897     0.07900
Br806      Br  0.76998294  0.54448054  0.01746912    -0.02700
C807        C  0.42119245  0.59634299  0.02200365    -0.09300
C808        C  0.42193011  0.60731416  0.00658456     0.06900
C809        C  0.40833416  0.60555753  0.99333585    -0.03100
C810        C  0.39520187  0.59189681  0.99502738    -0.07500
C811        C  0.39545577  0.57994512  0.00980749     0.06000
C812        C  0.40804911  0.58292324  0.02381577    -0.02500
Br813      Br  0.40799760  0.56919045  0.04585195    -0.02200
H814        H  0.43129656  0.59786194  0.03250045     0.09900
H815        H  0.38553804  0.58988195  0.98421558     0.07900
Br816      Br  0.40829654  0.62004065  0.97184370    -0.02700
C817        C  0.56485118  0.58662071  0.99304278    -0.09300
C818        C  0.56725837  0.60291368  0.00246203     0.06900
C819        C  0.58391549  0.60595940  0.01134709    -0.03100
C820        C  0.59723375  0.59235719  0.01148527    -0.07500
C821        C  0.59423846  0.57566038  0.00292249     0.06000
C822        C  0.57808252  0.57316935  0.99309720    -0.02500
Br823      Br  0.57345509  0.55198322  0.97882238    -0.02200
H824        H  0.55243447  0.58421417  0.98565133     0.09900
H825        H  0.60962285  0.59452300  0.01899322     0.07900
Br826      Br  0.58867748  0.62757716  0.02482837    -0.02700
C827        C  0.52204490  0.92115149  0.92133020    -0.09300
C828        C  0.50867698  0.90769546  0.92159919     0.06900
C829        C  0.49548744  0.90744174  0.90781785    -0.03100
C830        C  0.49539381  0.92108859  0.89460175    -0.07500
C831        C  0.50817963  0.93512565  0.89506987     0.06000
C832        C  0.52192558  0.93473275  0.90824402    -0.02500
Br833      Br  0.54078443  0.95258620  0.90914195    -0.02200
H834        H  0.53236286  0.92141489  0.93172475     0.09900
H835        H  0.48464453  0.92137881  0.88466128     0.07900
Br836      Br  0.47606790  0.89022991  0.90772994    -0.02700
C837        C  0.48973523  0.76638295  0.98196768    -0.09300
C838        C  0.50222073  0.77499702  0.99340656     0.06900
C839        C  0.51331888  0.76428865  0.00461868    -0.03100
C840        C  0.51149598  0.74547383  0.00453723    -0.07500
C841        C  0.49875852  0.73683853  0.99342882     0.06000
C842        C  0.48788106  0.74750355  0.98191733    -0.02500
Br843      Br  0.47121154  0.73714645  0.96494323    -0.02200
H844        H  0.48129690  0.77438860  0.97307546     0.09900
H845        H  0.52014340  0.73752088  0.01327160     0.07900
Br846      Br  0.53220304  0.77431362  0.01933331    -0.02700
C847        C  0.49144507  0.90464933  0.07974105    -0.09300
C848        C  0.50518725  0.90662975  0.06674556     0.06900
C849        C  0.51739406  0.92119988  0.06834554    -0.03100
C850        C  0.51490958  0.93416568  0.08182537    -0.07500
C851        C  0.50053213  0.93288045  0.09412727     0.06000
C852        C  0.48901840  0.91768461  0.09336779    -0.02500
Br853      Br  0.46868177  0.91519977  0.10927480    -0.02200
H854        H  0.48192924  0.89356142  0.07864925     0.09900
H855        H  0.52404172  0.94561396  0.08243312     0.07900
Br856      Br  0.53783827  0.92406330  0.05255311    -0.02700
C857        C  0.41441191  0.99046905  0.39663551    -0.09300
C858        C  0.42903953  0.00245510  0.39851950     0.06900
C859        C  0.42892100  0.01492964  0.41291535    -0.03100
C860        C  0.41516593  0.01428514  0.42587301    -0.07500
C861        C  0.40115523  0.00152980  0.42471351     0.06000
C862        C  0.40053034  0.98988924  0.40962237    -0.02500
Br863      Br  0.38228865  0.97161149  0.40719068    -0.02200
H864        H  0.41433876  0.98079783  0.38564839     0.09900
H865        H  0.41565004  0.02355056  0.43720003     0.07900
Br866      Br  0.44711380  0.03329897  0.41544099    -0.00300
C867        C  0.57613367  0.97617159  0.40824635    -0.09300
C868        C  0.57443229  0.99083669  0.39633678     0.06900
C869        C  0.58705573  0.00511224  0.39733523    -0.03100
C870        C  0.60075557  0.00473694  0.41046546    -0.07500
C871        C  0.60183152  0.99046689  0.42291107     0.06000
C872        C  0.58963017  0.97592222  0.42146988    -0.02500
Br873      Br  0.59040879  0.95577695  0.43780854    -0.02200
H874        H  0.56647192  0.96516353  0.40770039     0.09900
H875        H  0.60975067  0.01622677  0.41179832     0.07900
Br876      Br  0.58460762  0.02654409  0.38295730    -0.02700
C877        C  0.51086540  0.99232640  0.25531093    -0.09300
C878        C  0.49916044  0.00316738  0.26560038     0.06900
C879        C  0.48711014  0.01483990  0.25647193    -0.03100
C880        C  0.48645353  0.01490855  0.23752031    -0.07500
C881        C  0.49765555  0.00352648  0.22724877     0.06000
C882        C  0.51024529  0.99243527  0.23636459    -0.02500
Br883      Br  0.52790324  0.97819168  0.22376859    -0.02200
H884        H  0.52049744  0.98359725  0.26204742     0.09900
H885        H  0.47703637  0.02385804  0.23076751     0.07900
Br886      Br  0.47217805  0.03196667  0.26900805    -0.02700
C887        C  0.48633631  0.09484268  0.92324622    -0.09300
C888        C  0.50084420  0.10697233  0.92455214     0.06900
C889        C  0.51482740  0.10624150  0.91160179    -0.03100
C890        C  0.51448859  0.09286164  0.89814613    -0.07500
C891        C  0.50047243  0.08004601  0.89760719     0.06000
C892        C  0.48601197  0.08151605  0.90992882    -0.02500
Br893      Br  0.46548767  0.06559813  0.90928713    -0.02200
H894        H  0.47542585  0.09539627  0.93302078     0.09900
H895        H  0.52574735  0.09175718  0.88883136     0.07900
Br896      Br  0.53562916  0.12168195  0.91302687    -0.02700
C897        C  0.49287821  0.10709453  0.08388071    -0.09300
C898        C  0.50500843  0.10482337  0.06943126     0.06900
C899        C  0.51645529  0.08958536  0.06936130    -0.03100
C900        C  0.51441916  0.07616677  0.08249716    -0.07500
C901        C  0.50134762  0.07767779  0.09618133     0.06000
C902        C  0.49101130  0.09369430  0.09725790    -0.02500
Br903      Br  0.47289246  0.09717628  0.11547410    -0.02200
H904        H  0.48407109  0.11878607  0.08418377     0.09900
H905        H  0.52287298  0.06423005  0.08177100     0.07900
Br906      Br  0.53532596  0.08648015  0.05177428    -0.02700
C907        C  0.40215519  0.42244400  0.99850658    -0.09300
C908        C  0.40259194  0.43497569  0.01278518     0.06900
C909        C  0.41634197  0.43341658  0.02591980    -0.03100
C910        C  0.42999548  0.42053677  0.02385565    -0.07500
C911        C  0.43021404  0.40870811  0.00905077     0.06000
C912        C  0.41581574  0.40937726  0.99653710    -0.02500
Br913      Br  0.41504092  0.39415259  0.97557917    -0.02200
H914        H  0.39169968  0.42341823  0.98830408     0.09900
H915        H  0.44068861  0.41989056  0.03384473     0.07900
Br916      Br  0.41699520  0.44803576  0.04734760    -0.02700
C917        C  0.57784577  0.41575469  0.02421215    -0.09300
C918        C  0.57684454  0.40502049  0.00863747     0.06900
C919        C  0.59075686  0.40637282  0.99560293    -0.03100
C920        C  0.60421091  0.41970227  0.99748965    -0.07500
C921        C  0.60406955  0.43157723  0.01231569     0.06000
C922        C  0.59137608  0.42874306  0.02624205    -0.02500
Br923      Br  0.59181513  0.44228283  0.04836622    -0.02200
H924        H  0.56765652  0.41442126  0.03466464     0.09900
H925        H  0.61403410  0.42156618  0.98677790     0.07900
Br926      Br  0.59101672  0.39181344  0.97416468    -0.02700
C927        C  0.49041843  0.24710936  0.98615235    -0.09300
C928        C  0.50300755  0.23825760  0.99726779     0.06900
C929        C  0.51536230  0.24872534  0.00734098    -0.03100
C930        C  0.51465953  0.26762412  0.00646971    -0.07500
C931        C  0.50174706  0.27649415  0.99573616     0.06000
C932        C  0.48966027  0.26601589  0.98533406    -0.02500
Br933      Br  0.47275414  0.27661301  0.96874964    -0.02200
H934        H  0.48107200  0.23925903  0.97805477     0.09900
H935        H  0.52424870  0.27544279  0.01430971     0.07900
Br936      Br  0.53433504  0.23806500  0.02145780    -0.02700
loop_ 
_geom_bond_atom_site_label_1 
_geom_bond_atom_site_label_2 
_geom_bond_distance 
_geom_bond_site_symmetry_2 
_ccdc_geom_bond_type 
N1            N2   1.322       .  A
N1            C5   1.351       .  A
N1           Cu9   2.088   1_554  S
N2            C3   1.342       .  A
N2           Cu8   2.072       .  S
C3            C4   1.383       .  A
C3            H6   1.082       .  S
C4            C5   1.389       .  A
C4          C911   1.484       .  S
C5            H7   1.081       .  S
Cu8          N11   2.072       .  S
Cu9          N19   2.089       .  S
Cu10         N12   2.079   1_556  S
Cu10         N18   2.081       .  S
N11          N12   1.321       .  A
N11          C15   1.341       .  A
N12          C13   1.350       .  A
C13          C14   1.388       .  A
C13          H16   1.081   1_554  S
C14          C15   1.384       .  A
C14         C918   1.482       .  S
C15          H17   1.082       .  S
N18          N19   1.325       .  A
N18          C22   1.345       .  A
N19          C20   1.347       .  A
C20          C21   1.386       .  A
C20          H23   1.081       .  S
C21          C22   1.384       .  A
C21         C931   1.483       .  S
C22          H24   1.082       .  S
N25          N26   1.320       .  A
N25          C29   1.350       .  A
N25         Cu33   2.081       .  S
N26          C27   1.340       .  A
N26         Cu32   2.060       .  S
C27          C28   1.380       .  A
C27          H30   1.082       .  S
C28          C29   1.388       .  A
C28         C888   1.475       .  S
C29          H31   1.082       .  S
Cu32         N35   2.060   1_556  S
Cu33         N43   2.083       .  S
Cu34         N36   2.098       .  S
Cu34         N42   2.100       .  S
N35          N36   1.321       .  A
N35          C39   1.340       .  A
N36          C37   1.353       .  A
C37          C38   1.391       .  A
C37          H40   1.082       .  S
C38          C39   1.381       .  A
C38         C898   1.484       .  S
C39          H41   1.082       .  S
N42          N43   1.326   1_554  A
N42          C46   1.348       .  A
N43          C44   1.346       .  A
C44          C45   1.382       .  A
C44          H47   1.082       .  S
C45          C46   1.387   1_556  A
C45         C928   1.483       .  S
C46          H48   1.082       .  S
N49          N50   1.322       .  A
N49          C53   1.351       .  A
N49         Cu57   2.094       .  S
N50          C51   1.342       .  A
N50         Cu56   2.064       .  S
C51          C52   1.379       .  A
C51          H54   1.082       .  S
C52          C53   1.389       .  A
C52         C868   1.479       .  S
C53          H55   1.082       .  S
Cu56         N59   2.065       .  S
Cu57         N67   2.096       .  S
Cu58         N60   2.090       .  S
Cu58         N66   2.091       .  S
N59          N60   1.320       .  A
N59          C63   1.342       .  A
N60          C61   1.351       .  A
C61          C62   1.389   1_565  A
C61          H64   1.082   1_565  S
C62          C63   1.382   1_545  A
C62         C858   1.482       .  S
C63          H65   1.082       .  S
N66          N67   1.325       .  A
N66          C70   1.346   1_565  A
N67          C68   1.349   1_565  A
C68          C69   1.388       .  A
C68          H71   1.082       .  S
C69          C70   1.385       .  A
C69         C878   1.488       .  S
C70          H72   1.081       .  S
N73          N74   1.321       .  A
N73          C77   1.352       .  A
N73         Cu81   2.094       .  S
N74          C75   1.341       .  A
N74         Cu80   2.066   1_565  S
C75          C76   1.381       .  A
C75          H78   1.082       .  S
C76          C77   1.390       .  A
C76         C851   1.481       .  S
C77          H79   1.082       .  S
Cu80         N83   2.066       .  S
Cu81         N91   2.096       .  S
Cu82         N84   2.094       .  S
Cu82         N90   2.096       .  S
N83          N84   1.321       .  A
N83          C87   1.342       .  A
N84          C85   1.352       .  A
C85          C86   1.391       .  A
C85          H88   1.081       .  S
C86          C87   1.383       .  A
C86         C901   1.486       .  S
C87          H89   1.082       .  S
N90          N91   1.326   1_545  A
N90          C94   1.348       .  A
N91          C92   1.347       .  A
C92          C93   1.386   1_565  A
C92          H95   1.081       .  S
C93          C94   1.386       .  A
C93         C881   1.488       .  S
C94          H96   1.082       .  S
N97          N98   1.321       .  A
N97         C101   1.351       .  A
N97        Cu105   2.087       .  S
N98          C99   1.340       .  A
N98        Cu104   2.059       .  S
C99         C100   1.380       .  A
C99         H102   1.082       .  S
C100        C101   1.389       .  A
C100        C828   1.479       .  S
C101        H103   1.082       .  S
Cu104       N107   2.059   1_556  S
Cu105       N115   2.089       .  S
Cu106       N108   2.089       .  S
Cu106       N114   2.091       .  S
N107        N108   1.320       .  A
N107        C111   1.340       .  A
N108        C109   1.352       .  A
C109        C110   1.390       .  A
C109        H112   1.082       .  S
C110        C111   1.381       .  A
C110        C848   1.482       .  S
C111        H113   1.082       .  S
N114        N115   1.326   1_554  A
N114        C118   1.345       .  A
N115        C116   1.348       .  A
C116        C117   1.385       .  A
C116        H119   1.082       .  S
C117        C118   1.384   1_556  A
C117        C838   1.484       .  S
C118        H120   1.081       .  S
N121        N122   1.321       .  A
N121        C125   1.352       .  A
N121       Cu129   2.087   1_554  S
N122        C123   1.340       .  A
N122       Cu128   2.065       .  S
C123        C124   1.380       .  A
C123        H126   1.082       .  S
C124        C125   1.389       .  A
C124        C808   1.479       .  S
C125        H127   1.082   1_554  S
Cu128       N131   2.065       .  S
Cu129       N139   2.089       .  S
Cu130       N132   2.089   1_556  S
Cu130       N138   2.091       .  S
N131        N132   1.320       .  A
N131        C135   1.341       .  A
N132        C133   1.352       .  A
C133        C134   1.393       .  A
C133        H136   1.081   1_554  S
C134        C135   1.384       .  A
C134        C818   1.489       .  S
C135        H137   1.082       .  S
N138        N139   1.326       .  A
N138        C142   1.345       .  A
N139        C140   1.348       .  A
C140        C141   1.386       .  A
C140        H143   1.081       .  S
C141        C142   1.385       .  A
C141        C841   1.485       .  S
C142        H144   1.082       .  S
N145        N146   1.320       .  A
N145        C149   1.349       .  A
N145       Cu153   2.081       .  S
N146        C147   1.341       .  A
N146       Cu152   2.061       .  S
C147        C148   1.383       .  A
C147        H150   1.082       .  S
C148        C149   1.389       .  A
C148        C778   1.482       .  S
C149        H151   1.081       .  S
Cu152       N155   2.061   1_556  S
Cu153       N163   2.083       .  S
Cu154       N156   2.093       .  S
Cu154       N162   2.095       .  S
N155        N156   1.322       .  A
N155        C159   1.340       .  A
N156        C157   1.352       .  A
C157        C158   1.388       .  A
C157        H160   1.082       .  S
C158        C159   1.380       .  A
C158        C788   1.478       .  S
C159        H161   1.082       .  S
N162        N163   1.325   1_554  A
N162        C166   1.347       .  A
N163        C164   1.346       .  A
C164        C165   1.384       .  A
C164        H167   1.082       .  S
C165        C166   1.387   1_556  A
C165        C798   1.485       .  S
C166        H168   1.081       .  S
N169        N170   1.321       .  A
N169        C173   1.352       .  A
N169       Cu177   2.096       .  S
N170        C171   1.342       .  A
N170       Cu176   2.067       .  S
C171        C172   1.383       .  A
C171        H174   1.082       .  S
C172        C173   1.390       .  A
C172        C821   1.485       .  S
C173        H175   1.082   1_554  S
Cu176       N179   2.067       .  S
Cu177       N187   2.098   1_554  S
Cu178       N180   2.086       .  S
Cu178       N186   2.088   1_554  S
N179        N180   1.321       .  A
N179        C183   1.340       .  A
N180        C181   1.352       .  A
C181        C182   1.389       .  A
C181        H184   1.082       .  S
C182        C183   1.382       .  A
C182        C921   1.481       .  S
C183        H185   1.082       .  S
N186        N187   1.325       .  A
N186        C190   1.346       .  A
N187        C188   1.348       .  A
C188        C189   1.388       .  A
C188        H191   1.082       .  S
C189        C190   1.385       .  A
C189        C801   1.488       .  S
C190        H192   1.081       .  S
N193        N194   1.321       .  A
N193        C197   1.351       .  A
N193       Cu201   2.094       .  S
N194        C195   1.341       .  A
N194       Cu200   2.063       .  S
C195        C196   1.382       .  A
C195        H198   1.082       .  S
C196        C197   1.392       .  A
C196        C761   1.486       .  S
C197        H199   1.081       .  S
Cu200       N203   2.062       .  S
Cu201       N211   2.096       .  S
Cu202       N204   2.079       .  S
Cu202       N210   2.080       .  S
N203        N204   1.320       .  A
N203        C207   1.340       .  A
N204        C205   1.350       .  A
C205        C206   1.388       .  A
C205        H208   1.082       .  S
C206        C207   1.381       .  A
C206        C751   1.479       .  S
C207        H209   1.082       .  S
N210        N211   1.326       .  A
N210        C214   1.345       .  A
N211        C212   1.347       .  A
C212        C213   1.385       .  A
C212        H215   1.082       .  S
C213        C214   1.381       .  A
C213        C768   1.478       .  S
C214        H216   1.082       .  S
N217        N218   1.321       .  A
N217        C221   1.350       .  A
N217       Cu225   2.084       .  S
N218        C219   1.341       .  A
N218       Cu224   2.063   1_655  S
C219        C220   1.381       .  A
C219        H222   1.082       .  S
C220        C221   1.389       .  A
C220        C791   1.480       .  S
C221        H223   1.082       .  S
Cu224       N227   2.063       .  S
Cu225       N235   2.086       .  S
Cu226       N228   2.087       .  S
Cu226       N234   2.089       .  S
N227        N228   1.321       .  A
N227        C231   1.340       .  A
N228        C229   1.351       .  A
C229        C230   1.389       .  A
C229        H232   1.081       .  S
C230        C231   1.381       .  A
C230        C741   1.480       .  S
C231        H233   1.082       .  S
N234        N235   1.325   1_455  A
N234        C238   1.347       .  A
N235        C236   1.345       .  A
C236        C237   1.385       .  A
C236        H239   1.082       .  S
C237        C238   1.387   1_655  A
C237        C771   1.486       .  S
C238        H240   1.081       .  S
N241        N242   1.321       .  A
N241        C245   1.352       .  A
N241       Cu249   2.089   1_554  S
N242        C243   1.340       .  A
N242       Cu248   2.063       .  S
C243        C244   1.382       .  A
C243        H246   1.081       .  S
C244        C245   1.390       .  A
C244        C811   1.482       .  S
C245        H247   1.082       .  S
Cu248       N251   2.063       .  S
Cu249       N259   2.091       .  S
Cu250       N252   2.094       .  S
Cu250       N258   2.096   1_554  S
N251        N252   1.320       .  A
N251        C255   1.342       .  A
N252        C253   1.351       .  A
C253        C254   1.391       .  A
C253        H256   1.082       .  S
C254        C255   1.383       .  A
C254        C908   1.486       .  S
C255        H257   1.082       .  S
N258        N259   1.325       .  A
N258        C262   1.348       .  A
N259        C260   1.347       .  A
C260        C261   1.388       .  A
C260        H263   1.082       .  S
C261        C262   1.389       .  A
C261        C728   1.494       .  S
C262        H264   1.080       .  S
N265        N266   1.321       .  A
N265        C269   1.350       .  A
N265       Cu273   2.085       .  S
N266        C267   1.340       .  A
N266       Cu272   2.060       .  S
C267        C268   1.381       .  A
C267        H270   1.082       .  S
C268        C269   1.388       .  A
C268        C718   1.479       .  S
C269        H271   1.082       .  S
Cu272       N275   2.060   1_556  S
Cu273       N283   2.087       .  S
Cu274       N276   2.090       .  S
Cu274       N282   2.092       .  S
N275        N276   1.320       .  A
N275        C279   1.340       .  A
N276        C277   1.351       .  A
C277        C278   1.390       .  A
C277        H280   1.082       .  S
C278        C279   1.382       .  A
C278        C738   1.483       .  S
C279        H281   1.081       .  S
N282        N283   1.325   1_554  A
N282        C286   1.347       .  A
N283        C284   1.347       .  A
C284        C285   1.385       .  A
C284        H287   1.081       .  S
C285        C286   1.385   1_556  A
C285        C731   1.484       .  S
C286        H288   1.082       .  S
N289        N290   1.321       .  A
N289        C293   1.351       .  A
N289       Cu297   2.086       .  S
N290        C291   1.338       .  A
N290       Cu296   2.052       .  S
C291        C292   1.377       .  A
C291        H294   1.082       .  S
C292        C293   1.388       .  A
C292        C781   1.474       .  S
C293        H295   1.082       .  S
Cu296       N299   2.052   1_655  S
Cu297       N307   2.089       .  S
Cu298       N300   2.081       .  S
Cu298       N306   2.084       .  S
N299        N300   1.319       .  A
N299        C303   1.339       .  A
N300        C301   1.350       .  A
C301        C302   1.390       .  A
C301        H304   1.081       .  S
C302        C303   1.381       .  A
C302        C721   1.481       .  S
C303        H305   1.082       .  S
N306        N307   1.326   1_455  A
N306        C310   1.345       .  A
N307        C308   1.346       .  A
C308        C309   1.384   1_655  A
C308        H311   1.082       .  S
C309        C310   1.383       .  A
C309        C708   1.480       .  S
C310        H312   1.081       .  S
N313        N314   1.321       .  A
N313        C317   1.351       .  A
N313       Cu321   2.085       .  S
N314        C315   1.340       .  A
N314       Cu320   2.062       .  S
C315        C316   1.381       .  A
C315        H318   1.082       .  S
C316        C317   1.388       .  A
C316        C701   1.479       .  S
C317        H319   1.082       .  S
Cu320       N323   2.061       .  S
Cu321       N331   2.087       .  S
Cu322       N324   2.079       .  S
Cu322       N330   2.081       .  S
N323        N324   1.320       .  A
N323        C327   1.340       .  A
N324        C325   1.349       .  A
C325        C326   1.388       .  A
C325        H328   1.081       .  S
C326        C327   1.382       .  A
C326        C691   1.480       .  S
C327        H329   1.082       .  S
N330        N331   1.325       .  A
N330        C334   1.344       .  A
N331        C332   1.347       .  A
C332        C333   1.386       .  A
C332        H335   1.081       .  S
C333        C334   1.384       .  A
C333        C711   1.483       .  S
C334        H336   1.082       .  S
N337        N338   1.321       .  A
N337        C341   1.350       .  A
N337       Cu345   2.089       .  S
N338        C339   1.343       .  A
N338       Cu344   2.071   1_455  S
C339        C340   1.385       .  A
C339        H342   1.082       .  S
C340        C341   1.392       .  A
C340        C668   1.490       .  S
C341        H343   1.081       .  S
Cu344       N347   2.071       .  S
Cu345       N355   2.090       .  S
Cu346       N348   2.091       .  S
Cu346       N354   2.092       .  S
N347        N348   1.322       .  A
N347        C351   1.343       .  A
N348        C349   1.350       .  A
C349        C350   1.390       .  A
C349        H352   1.081       .  S
C350        C351   1.383       .  A
C350        C661   1.486       .  S
C351        H353   1.082       .  S
N354        N355   1.325   1_655  A
N354        C358   1.349       .  A
N355        C356   1.346       .  A
C356        C357   1.385   1_455  A
C356        H359   1.081       .  S
C357        C358   1.385       .  A
C357        C681   1.485       .  S
C358        H360   1.082       .  S
N361        N362   1.320       .  A
N361        C365   1.349       .  A
N361       Cu369   2.076       .  S
N362        C363   1.341       .  A
N362       Cu368   2.067       .  S
C363        C364   1.382       .  A
C363        H366   1.082       .  S
C364        C365   1.387       .  A
C364        C698   1.479       .  S
C365        H367   1.081       .  S
Cu368       N371   2.068       .  S
Cu369       N379   2.078   1_455  S
Cu370       N372   2.098   1_655  S
Cu370       N378   2.099       .  S
N371        N372   1.323       .  A
N371        C375   1.342       .  A
N372        C373   1.352   1_455  A
C373        C374   1.388       .  A
C373        H376   1.082       .  S
C374        C375   1.380   1_655  A
C374        C758   1.478       .  S
C375        H377   1.082       .  S
N378        N379   1.324       .  A
N378        C382   1.350       .  A
N379        C380   1.343       .  A
C380        C381   1.384       .  A
C380        H383   1.082   1_655  S
C381        C382   1.391       .  A
C381        C678   1.490       .  S
C382        H384   1.081       .  S
N385        N386   1.322       .  A
N385        C389   1.352       .  A
N385       Cu393   2.095       .  S
N386        C387   1.340       .  A
N386       Cu392   2.056   1_565  S
C387        C388   1.379       .  A
C387        H390   1.082       .  S
C388        C389   1.389       .  A
C388        C831   1.477       .  S
C389        H391   1.082       .  S
Cu392       N395   2.056       .  S
Cu393       N403   2.097   1_565  S
Cu394       N396   2.083       .  S
Cu394       N402   2.086       .  S
N395        N396   1.320       .  A
N395        C399   1.340       .  A
N396        C397   1.350       .  A
C397        C398   1.387       .  A
C397        H400   1.082       .  S
C398        C399   1.380       .  A
C398        C891   1.475       .  S
C399        H401   1.082       .  S
N402        N403   1.325       .  A
N402        C406   1.346       .  A
N403        C404   1.348   1_545  A
C404        C405   1.388   1_565  A
C404        H407   1.082       .  S
C405        C406   1.386       .  A
C405        C651   1.489       .  S
C406        H408   1.081       .  S
N409        N410   1.321       .  A
N409        C413   1.351       .  A
N409       Cu417   2.088       .  S
N410        C411   1.343       .  A
N410       Cu416   2.069       .  S
C411        C412   1.383       .  A
C411        H414   1.082       .  S
C412        C413   1.388       .  A
C412        C641   1.481       .  S
C413        H415   1.082       .  S
Cu416       N419   2.069       .  S
Cu417       N427   2.090       .  S
Cu418       N420   2.096       .  S
Cu418       N426   2.098       .  S
N419        N420   1.322       .  A
N419        C423   1.341       .  A
N420        C421   1.353       .  A
C421        C422   1.391       .  A
C421        H424   1.081       .  S
C422        C423   1.382       .  A
C422        C628   1.484       .  S
C423        H425   1.082       .  S
N426        N427   1.326       .  A
N426        C430   1.348       .  A
N427        C428   1.347       .  A
C428        C429   1.384       .  A
C428        H431   1.082       .  S
C429        C430   1.387       .  A
C429        C648   1.486       .  S
C430        H432   1.081       .  S
N433        N434   1.322       .  A
N433        C437   1.349       .  A
N433       Cu441   2.085       .  S
N434        C435   1.344       .  A
N434       Cu440   2.076   1_565  S
C435        C436   1.384       .  A
C435        H438   1.082       .  S
C436        C437   1.387       .  A
C436        C658   1.482       .  S
C437        H439   1.082       .  S
Cu440       N443   2.076       .  S
Cu441       N451   2.086       .  S
Cu442       N444   2.077       .  S
Cu442       N450   2.079       .  S
N443        N444   1.321       .  A
N443        C447   1.343       .  A
N444        C445   1.350       .  A
C445        C446   1.386       .  A
C445        H448   1.082       .  S
C446        C447   1.384       .  A
C446        C611   1.479       .  S
C447        H449   1.082       .  S
N450        N451   1.324   1_545  A
N450        C454   1.345       .  A
N451        C452   1.347       .  A
C452        C453   1.386   1_565  A
C452        H455   1.082       .  S
C453        C454   1.383       .  A
C453        C618   1.481       .  S
C454        H456   1.082       .  S
N457        N458   1.320       .  A
N457        C461   1.351       .  A
N457       Cu465   2.087       .  S
N458        C459   1.341       .  A
N458       Cu464   2.059       .  S
C459        C460   1.380       .  A
C459        H462   1.082       .  S
C460        C461   1.389       .  A
C460        C638   1.478       .  S
C461        H463   1.082       .  S
Cu464       N467   2.059   1_545  S
Cu465       N475   2.089       .  S
Cu466       N468   2.090       .  S
Cu466       N474   2.092       .  S
N467        N468   1.321       .  A
N467        C471   1.340       .  A
N468        C469   1.352       .  A
C469        C470   1.388       .  A
C469        H472   1.082       .  S
C470        C471   1.378       .  A
C470        C871   1.475       .  S
C471        H473   1.082       .  S
N474        N475   1.326   1_565  A
N474        C478   1.347       .  A
N475        C476   1.346       .  A
C476        C477   1.385       .  A
C476        H479   1.081       .  S
C477        C478   1.386   1_545  A
C477        C621   1.485       .  S
C478        H480   1.082       .  S
N481        N482   1.321       .  A
N481        C485   1.353       .  A
N481       Cu489   2.095       .  S
N482        C483   1.341       .  A
N482       Cu488   2.066       .  S
C483        C484   1.383       .  A
C483        H486   1.082       .  S
C484        C485   1.391       .  A
C484        C631   1.486       .  S
C485        H487   1.082       .  S
Cu488       N491   2.066       .  S
Cu489       N499   2.098   1_565  S
Cu490       N492   2.091       .  S
Cu490       N498   2.093       .  S
N491        N492   1.321       .  A
N491        C495   1.342       .  A
N492        C493   1.352       .  A
C493        C494   1.390       .  A
C493        H496   1.081   1_565  S
C494        C495   1.381       .  A
C494        C861   1.483   1_565  S
C495        H497   1.082       .  S
N498        N499   1.326   1_565  A
N498        C502   1.347   1_565  A
N499        C500   1.348       .  A
C500        C501   1.385       .  A
C500        H503   1.082       .  S
C501        C502   1.385       .  A
C501        C598   1.486       .  S
C502        H504   1.081       .  S
N505        N506   1.321       .  A
N505        C509   1.352       .  A
N505       Cu513   2.096       .  S
N506        C507   1.341       .  A
N506       Cu512   2.061   1_565  S
C507        C508   1.381       .  A
C507        H510   1.082       .  S
C508        C509   1.391       .  A
C508        C671   1.484       .  S
C509        H511   1.082       .  S
Cu512       N515   2.061       .  S
Cu513       N523   2.099       .  S
Cu514       N516   2.093       .  S
Cu514       N522   2.095       .  S
N515        N516   1.321       .  A
N515        C519   1.340       .  A
N516        C517   1.352       .  A
C517        C518   1.391       .  A
C517        H520   1.081       .  S
C518        C519   1.381       .  A
C518        C588   1.483       .  S
C519        H521   1.082       .  S
N522        N523   1.326   1_545  A
N522        C526   1.348       .  A
N523        C524   1.348       .  A
C524        C525   1.386   1_565  A
C524        H527   1.082       .  S
C525        C526   1.386       .  A
C525        C601   1.489       .  S
C526        H528   1.081       .  S
N529        N530   1.320       .  A
N529        C533   1.350       .  A
N529       Cu537   2.080       .  S
N530        C531   1.339       .  A
N530       Cu536   2.058       .  S
C531        C532   1.381       .  A
C531        H534   1.082       .  S
C532        C533   1.388       .  A
C532        C688   1.478       .  S
C533        H535   1.082       .  S
Cu536       N539   2.058       .  S
Cu537       N547   2.082   1_455  S
Cu538       N540   2.086       .  S
Cu538       N546   2.089       .  S
N539        N540   1.321   1_455  A
N539        C543   1.341       .  A
N540        C541   1.350       .  A
C541        C542   1.387       .  A
C541        H544   1.082       .  S
C542        C543   1.379   1_655  A
C542        C748   1.475       .  S
C543        H545   1.082       .  S
N546        N547   1.325       .  A
N546        C550   1.346       .  A
N547        C548   1.345       .  A
C548        C549   1.384       .  A
C548        H551   1.082       .  S
C549        C550   1.386       .  A
C549        C581   1.483       .  S
C550        H552   1.081       .  S
N553        N554   1.321       .  A
N553        C557   1.349       .  A
N553       Cu561   2.077       .  S
N554        C555   1.342       .  A
N554       Cu560   2.070       .  S
C555        C556   1.381       .  A
C555        H558   1.082       .  S
C556        C557   1.386       .  A
C556        C608   1.476       .  S
C557        H559   1.082       .  S
Cu560       N563   2.070   1_655  S
Cu561       N571   2.078       .  S
Cu562       N564   2.088       .  S
Cu562       N570   2.090       .  S
N563        N564   1.322       .  A
N563        C567   1.342       .  A
N564        C565   1.351       .  A
C565        C566   1.388       .  A
C565        H568   1.082       .  S
C566        C567   1.382       .  A
C566        C591   1.481       .  S
C567        H569   1.082       .  S
N570        N571   1.325   1_455  A
N570        C574   1.347       .  A
N571        C572   1.345       .  A
C572        C573   1.381       .  A
C572        H575   1.082       .  S
C573        C574   1.385   1_655  A
C573        C578   1.478       .  S
C574        H576   1.081       .  S
C577        C578   1.403       .  A
C577        C582   1.400       .  A
C577        H584   1.083       .  S
C578        C579   1.409   1_655  A
C579        C580   1.400       .  A
C579       Br586   1.919       .  S
C580        C581   1.405   1_455  A
C580        H585   1.083       .  S
C581        C582   1.412       .  A
C582       Br583   1.919       .  S
C587        C588   1.403       .  A
C587        C592   1.396       .  A
C587        H594   1.084       .  S
C588        C589   1.412       .  A
C589        C590   1.407       .  A
C589       Br596   1.918       .  S
C590        C591   1.405       .  A
C590        H595   1.083       .  S
C591        C592   1.409       .  A
C592       Br593   1.921       .  S
C597        C598   1.404       .  A
C597        C602   1.403       .  A
C597        H604   1.083       .  S
C598        C599   1.411   1_545  A
C599        C600   1.403       .  A
C599       Br606   1.919       .  S
C600        C601   1.405   1_565  A
C600        H605   1.083       .  S
C601        C602   1.414       .  A
C602       Br603   1.919       .  S
C607        C608   1.401       .  A
C607        C612   1.397       .  A
C607        H614   1.084       .  S
C608        C609   1.410       .  A
C609        C610   1.404       .  A
C609       Br616   1.919       .  S
C610        C611   1.405       .  A
C610        H615   1.083       .  S
C611        C612   1.409       .  A
C612       Br613   1.920       .  S
C617        C618   1.403       .  A
C617        C622   1.399       .  A
C617        H624   1.083       .  S
C618        C619   1.410   1_545  A
C619        C620   1.401       .  A
C619       Br626   1.919       .  S
C620        C621   1.405   1_565  A
C620        H625   1.083       .  S
C621        C622   1.413       .  A
C622       Br623   1.920       .  S
C627        C628   1.402   1_565  A
C627        C632   1.396       .  A
C627        H634   1.084       .  S
C628        C629   1.412       .  A
C629        C630   1.408       .  A
C629       Br636   1.917       .  S
C630        C631   1.407   1_545  A
C630        H635   1.083       .  S
C631        C632   1.411       .  A
C632       Br633   1.921       .  S
C637        C638   1.402   1_565  A
C637        C642   1.396       .  A
C637        H644   1.084       .  S
C638        C639   1.410       .  A
C639        C640   1.406       .  A
C639       Br646   1.918       .  S
C640        C641   1.406       .  A
C640        H645   1.083       .  S
C641        C642   1.409   1_545  A
C642       Br643   1.920       .  S
C647        C648   1.404       .  A
C647        C652   1.402       .  A
C647        H654   1.083       .  S
C648        C649   1.411   1_545  A
C649        C650   1.403       .  A
C649       Br656   1.919       .  S
C650        C651   1.406   1_565  A
C650        H655   1.083       .  S
C651        C652   1.414       .  A
C652       Br653   1.920       .  S
C657        C658   1.404       .  A
C657        C662   1.404       .  A
C657        H664   1.083       .  S
C658        C659   1.409       .  A
C659        C660   1.400       .  A
C659       Br666   1.920       .  S
C660        C661   1.405       .  A
C660        H665   1.083       .  S
C661        C662   1.414       .  A
C662       Br663   1.918       .  S
C667        C668   1.405       .  A
C667        C672   1.398       .  A
C667        H674   1.083       .  S
C668        C669   1.416       .  A
C669        C670   1.406       .  A
C669       Br676   1.918       .  S
C670        C671   1.404       .  A
C670        H675   1.083       .  S
C671        C672   1.410       .  A
C672       Br673   1.921       .  S
C677        C678   1.406   1_455  A
C677        C682   1.398       .  A
C677        H684   1.083       .  S
C678        C679   1.414       .  A
C679        C680   1.406       .  A
C679       Br686   1.919       .  S
C680        C681   1.405       .  A
C680        H685   1.083       .  S
C681        C682   1.410   1_655  A
C682       Br683   1.920       .  S
C687        C688   1.404       .  A
C687        C692   1.404       .  A
C687        H694   1.083   1_455  S
C688        C689   1.409       .  A
C689        C690   1.395       .  A
C689       Br696   1.921       .  S
C690        C691   1.403       .  A
C690        H695   1.084       .  S
C691        C692   1.412       .  A
C692       Br693   1.918   1_455  S
C697        C698   1.401       .  A
C697        C702   1.395       .  A
C697        H704   1.084       .  S
C698        C699   1.412   1_455  A
C699        C700   1.405   1_655  A
C699       Br706   1.918       .  S
C700        C701   1.405       .  A
C700        H705   1.083   1_455  S
C701        C702   1.410       .  A
C702       Br703   1.920       .  S
C707        C708   1.404   1_655  A
C707        C712   1.401       .  A
C707        H714   1.083       .  S
C708        C709   1.410       .  A
C709        C710   1.399       .  A
C709       Br716   1.920       .  S
C710        C711   1.405       .  A
C710        H715   1.083       .  S
C711        C712   1.412   1_455  A
C712       Br713   1.919       .  S
C717        C718   1.405       .  A
C717        C722   1.404       .  A
C717        H724   1.083       .  S
C718        C719   1.410       .  A
C719        C720   1.395       .  A
C719       Br726   1.921       .  S
C720        C721   1.403       .  A
C720        H725   1.084       .  S
C721        C722   1.412       .  A
C722       Br723   1.918       .  S
C727        C728   1.408       .  A
C727        C732   1.402       .  A
C727        H734   1.083       .  S
C728        C729   1.417   1_556  A
C729        C730   1.402       .  A
C729       Br736   1.919       .  S
C730        C731   1.402   1_554  A
C730        H735   1.084       .  S
C731        C732   1.410       .  A
C732       Br733   1.920       .  S
C737        C738   1.406       .  A
C737        C742   1.405       .  A
C737        H744   1.083       .  S
C738        C739   1.411       .  A
C739        C740   1.395       .  A
C739       Br746   1.921       .  S
C740        C741   1.402       .  A
C740        H745   1.084       .  S
C741        C742   1.410       .  A
C742       Br743   1.917       .  S
C747        C748   1.403   1_455  A
C747        C752   1.404       .  A
C747        H754   1.083       .  S
C748        C749   1.407       .  A
C749        C750   1.395       .  A
C749       Br756   1.920       .  S
C750        C751   1.403       .  A
C750        H755   1.084       .  S
C751        C752   1.412   1_655  A
C752       Br753   1.918       .  S
C757        C758   1.403   1_455  A
C757        C762   1.405       .  A
C757        H764   1.083       .  S
C758        C759   1.407       .  A
C759        C760   1.398       .  A
C759       Br766   1.920       .  S
C760        C761   1.405       .  A
C760        H765   1.083       .  S
C761        C762   1.413   1_655  A
C762       Br763   1.918       .  S
C767        C768   1.401   1_455  A
C767        C772   1.401       .  A
C767        H774   1.084       .  S
C768        C769   1.409       .  A
C769        C770   1.400       .  A
C769       Br776   1.919       .  S
C770        C771   1.406       .  A
C770        H775   1.083       .  S
C771        C772   1.415   1_655  A
C772       Br773   1.919       .  S
C777        C778   1.403       .  A
C777        C782   1.394       .  A
C777        H784   1.083       .  S
C778        C779   1.414       .  A
C779        C780   1.404       .  A
C779       Br786   1.918       .  S
C780        C781   1.402       .  A
C780        H785   1.083       .  S
C781        C782   1.408       .  A
C782       Br783   1.921       .  S
C787        C788   1.404       .  A
C787        C792   1.405       .  A
C787        H794   1.083       .  S
C788        C789   1.409       .  A
C789        C790   1.396       .  A
C789       Br796   1.920       .  S
C790        C791   1.402       .  A
C790        H795   1.084       .  S
C791        C792   1.412       .  A
C792       Br793   1.918       .  S
C797        C798   1.404       .  A
C797        C802   1.402       .  A
C797        H804   1.083       .  S
C798        C799   1.411   1_556  A
C799        C800   1.402       .  A
C799       Br806   1.919       .  S
C800        C801   1.405   1_554  A
C800        H805   1.083       .  S
C801        C802   1.414       .  A
C802       Br803   1.920       .  S
C807        C808   1.401       .  A
C807        C812   1.395       .  A
C807        H814   1.084       .  S
C808        C809   1.410   1_554  A
C809        C810   1.406       .  A
C809       Br816   1.917       .  S
C810        C811   1.406   1_556  A
C810        H815   1.083       .  S
C811        C812   1.411       .  A
C812       Br813   1.921       .  S
C817        C818   1.404   1_556  A
C817        C822   1.396       .  A
C817        H824   1.083       .  S
C818        C819   1.414       .  A
C819        C820   1.408       .  A
C819       Br826   1.918       .  S
C820        C821   1.406       .  A
C820        H825   1.083       .  S
C821        C822   1.410   1_554  A
C822       Br823   1.921       .  S
C827        C828   1.402       .  A
C827        C832   1.395       .  A
C827        H834   1.084       .  S
C828        C829   1.411       .  A
C829        C830   1.405       .  A
C829       Br836   1.918       .  S
C830        C831   1.404       .  A
C830        H835   1.083       .  S
C831        C832   1.409       .  A
C832       Br833   1.921       .  S
C837        C838   1.405       .  A
C837        C842   1.403       .  A
C837        H844   1.083       .  S
C838        C839   1.411   1_556  A
C839        C840   1.398       .  A
C839       Br846   1.920       .  S
C840        C841   1.404   1_554  A
C840        H845   1.083       .  S
C841        C842   1.413       .  A
C842       Br843   1.919       .  S
C847        C848   1.406       .  A
C847        C852   1.407       .  A
C847        H854   1.083       .  S
C848        C849   1.410       .  A
C849        C850   1.396       .  A
C849       Br856   1.921       .  S
C850        C851   1.402       .  A
C850        H855   1.084       .  S
C851        C852   1.411       .  A
C852       Br853   1.917       .  S
C857        C858   1.405   1_565  A
C857        C862   1.406       .  A
C857        H864   1.083       .  S
C858        C859   1.410       .  A
C859        C860   1.398       .  A
C859       Br866   1.920       .  S
C860        C861   1.403       .  A
C860        H865   1.084       .  S
C861        C862   1.411   1_545  A
C862       Br863   1.917       .  S
C867        C868   1.403       .  A
C867        C872   1.398       .  A
C867        H874   1.084       .  S
C868        C869   1.411   1_565  A
C869        C870   1.404       .  A
C869       Br876   1.918       .  S
C870        C871   1.403   1_545  A
C870        H875   1.083       .  S
C871        C872   1.408       .  A
C872       Br873   1.920       .  S
C877        C878   1.404   1_565  A
C877        C882   1.403       .  A
C877        H884   1.083       .  S
C878        C879   1.413       .  A
C879        C880   1.403       .  A
C879       Br886   1.920       .  S
C880        C881   1.405       .  A
C880        H885   1.083       .  S
C881        C882   1.413   1_545  A
C882       Br883   1.919       .  S
C887        C888   1.401       .  A
C887        C892   1.394       .  A
C887        H894   1.084       .  S
C888        C889   1.410       .  A
C889        C890   1.405       .  A
C889       Br896   1.918       .  S
C890        C891   1.404       .  A
C890        H895   1.083       .  S
C891        C892   1.409       .  A
C892       Br893   1.920       .  S
C897        C898   1.405       .  A
C897        C902   1.407       .  A
C897        H904   1.083       .  S
C898        C899   1.410       .  A
C899        C900   1.397       .  A
C899       Br906   1.921       .  S
C900        C901   1.404       .  A
C900        H905   1.084       .  S
C901        C902   1.413       .  A
C902       Br903   1.917       .  S
C907        C908   1.406   1_556  A
C907        C912   1.406       .  A
C907        H914   1.083       .  S
C908        C909   1.411       .  A
C909        C910   1.397       .  A
C909       Br916   1.920       .  S
C910        C911   1.402       .  A
C910        H915   1.084       .  S
C911        C912   1.412   1_554  A
C912       Br913   1.918       .  S
C917        C918   1.402       .  A
C917        C922   1.395       .  A
C917        H924   1.084       .  S
C918        C919   1.413   1_554  A
C919        C920   1.407       .  A
C919       Br926   1.918       .  S
C920        C921   1.406   1_556  A
C920        H925   1.083       .  S
C921        C922   1.409       .  A
C922       Br923   1.920       .  S
C927        C928   1.405       .  A
C927        C932   1.401       .  A
C927        H934   1.083       .  S
C928        C929   1.410   1_556  A
C929        C930   1.401       .  A
C929       Br936   1.919       .  S
C930        C931   1.405   1_554  A
C930        H935   1.083       .  S
C931        C932   1.411       .  A
C932       Br933   1.920       .  S
