geometry optimzed in LAMMPS
_audit_creation_date              2020-12-01 
_audit_creation_method            'lammps2cif' 
_symmetry_space_group_name_H-M    'P1' 
_symmetry_Int_Tables_number       1 
_symmetry_cell_setting            triclinic 
loop_ 
_symmetry_equiv_pos_as_xyz 
  x,y,z 
_cell_length_a                    36.6896892 
_cell_length_b                    36.38389765343814 
_cell_length_c                    36.70581918411327 
_cell_angle_alpha                 89.83354387601622 
_cell_angle_beta                  89.92608496915956 
_cell_angle_gamma                 89.99473801412086 
loop_ 
_atom_site_label 
_atom_site_type_symbol 
_atom_site_fract_x 
_atom_site_fract_y 
_atom_site_fract_z 
_atom_site_charge 
C1          C  0.77022504  0.51283529  0.02864069     0.90400
C2          C  0.74770643  0.54834165  0.02804078    -0.49800
C3          C  0.72632556  0.55174949  0.99769299     0.13300
C4          C  0.73051204  0.51994239  0.97032768     0.24300
C5          C  0.74206989  0.48187309  0.02385880    -0.50500
C6          C  0.72087572  0.48600270  0.99347730     0.13400
C7          C  0.79239453  0.51319879  0.99379669    -0.50100
C8          C  0.77211452  0.51663803  0.96327456     0.14000
H9          H  0.74690715  0.56768265  0.05052531     0.18500
H10         H  0.71366783  0.52288665  0.94535143     0.04300
H11         H  0.73846605  0.45953013  0.04322963     0.18800
H12         H  0.82184905  0.50966529  0.99317301     0.18600
C13         C  0.52276006  0.74268019  0.00995923     0.90400
C14         C  0.52017477  0.76489540  0.97428791    -0.49800
C15         C  0.48904408  0.78547883  0.97182338     0.13300
C16         C  0.46324162  0.78131645  0.00453922     0.24300
C17         C  0.51836733  0.77150213  0.04036414    -0.50500
C18         C  0.48717473  0.79198901  0.03712427     0.13400
C19         C  0.48817648  0.71960179  0.01141331    -0.50100
C20         C  0.45711503  0.73953845  0.00854358     0.14000
H21         H  0.54135074  0.76519037  0.95357917     0.18500
H22         H  0.43772609  0.79762830  0.00222781     0.04300
H23         H  0.53815751  0.77563312  0.06194998     0.18800
H24         H  0.48820261  0.68984154  0.01436728     0.18600
C25         C  0.03226435  0.49877207  0.77120693     0.90400
C26         C  0.03193355  0.46427118  0.74693722    -0.49800
C27         C  0.00099620  0.46121770  0.72623674     0.13300
C28         C  0.97317842  0.49219439  0.73253481     0.24300
C29         C  0.02607712  0.53091251  0.74462056    -0.50500
C30         C  0.99536870  0.52713175  0.72384531     0.13400
C31         C  0.99793363  0.49638035  0.79408198    -0.50100
C32         C  0.96707589  0.49279067  0.77439153     0.14000
H33         H  0.05451832  0.44505075  0.74518651     0.18500
H34         H  0.94785506  0.48938244  0.71620224     0.04300
H35         H  0.04502685  0.55363626  0.74139500     0.18800
H36         H  0.99799777  0.49703403  0.82372723     0.18600
C37         C  0.53370815  0.00161385  0.72831298     0.90400
C38         C  0.52758416  0.03759420  0.74913913    -0.49800
C39         C  0.49365171  0.03993286  0.76449533     0.13300
C40         C  0.46894822  0.00666213  0.75673816     0.24300
C41         C  0.52527941  0.97107379  0.75611165    -0.50500
C42         C  0.49140444  0.97410319  0.77138687     0.13400
C43         C  0.50339983  0.99975774  0.70031917    -0.50100
C44         C  0.46965092  0.00228130  0.71475613     0.14000
H45         H  0.54853405  0.05834192  0.75285542     0.18500
H46         H  0.44121726  0.00877048  0.76876454     0.04300
H47         H  0.54461439  0.94980283  0.76377192     0.18800
H48         H  0.50818706  0.99609408  0.67128127     0.18600
C49         C  0.72432345  0.98266529  0.53383867     0.90400
C50         C  0.74897266  0.94978682  0.52463484    -0.49800
C51         C  0.76883209  0.95494885  0.49349731     0.13300
C52         C  0.76146281  0.99159862  0.47415810     0.24300
C53         C  0.75027018  0.01587923  0.53502078    -0.50500
C54         C  0.77002398  0.02005833  0.50364947     0.13400
C55         C  0.70051751  0.98862063  0.50048446    -0.50100
C56         C  0.71973067  0.99329212  0.46934849     0.14000
H57         H  0.75176091  0.92566499  0.54192189     0.18500
H58         H  0.77722397  0.99540643  0.44853477     0.04300
H59         H  0.75345274  0.03359970  0.55856771     0.18800
H60         H  0.67087175  0.98883689  0.50130727     0.18600
C61         C  0.03949618  0.77378353  0.50142720     0.90400
C62         C  0.03224417  0.74995999  0.53529774    -0.49800
C63         C  0.00084141  0.72978416  0.53292288     0.13300
C64         C  0.97913063  0.73648594  0.49755404     0.24300
C65         C  0.03843586  0.74661592  0.46930840    -0.50500
C66         C  0.00677335  0.72679399  0.46773560     0.13400
C67         C  0.00601653  0.79779918  0.49688587    -0.50100
C68         C  0.97453501  0.77871465  0.49437796     0.14000
H69         H  0.05124819  0.74746507  0.55783975     0.18500
H70         H  0.95325382  0.72072399  0.49572553     0.04300
H71         H  0.06067367  0.74306361  0.45007062     0.18800
H72         H  0.00727077  0.82754721  0.49391543     0.18600
C73         C  0.21857227  0.50030237  0.03365312     0.90400
C74         C  0.24535378  0.46861028  0.02690047    -0.49800
C75         C  0.26877184  0.47507492  0.99852214     0.13300
C76         C  0.26233419  0.51213761  0.97897879     0.24300
C77         C  0.24280671  0.53438795  0.03852803    -0.50500
C78         C  0.26603727  0.54033476  0.00995329     0.13400
C79         C  0.19879801  0.50616267  0.99793082    -0.50100
C80         C  0.22115908  0.51248779  0.96932982     0.14000
H81         H  0.24673948  0.44416314  0.04390795     0.18500
H82         H  0.28084642  0.51723863  0.95552317     0.04300
H83         H  0.24209335  0.55178060  0.06253170     0.18800
H84         H  0.16924396  0.50561472  0.99540991     0.18600
O85         O  0.95275702  0.51382120  0.94970922    -0.69000
O86         O  0.03395039  0.52714465  0.02471744    -0.70000
O87         O  0.03158673  0.52399562  0.94618507    -0.58600
O88         O  0.95589490  0.51575732  0.02956799    -0.67000
O89         O  0.96608296  0.45576844  0.03104929    -0.66600
O90         O  0.03873424  0.46357304  0.94847207    -0.57800
O91         O  0.04256281  0.46692263  0.02757411    -0.70300
O92         O  0.96154570  0.45365743  0.95196698    -0.69100
Cu93       Cu  0.99315484  0.52231200  0.98747270     1.04600
Cu94       Cu  0.00242409  0.45802058  0.98979255     1.04300
C95         C  0.94480733  0.48150094  0.93845382     0.97200
C96         C  0.05074241  0.49942740  0.03818059     0.96300
C97         C  0.04686687  0.49461915  0.93425487     0.88500
C98         C  0.95014921  0.48407021  0.04404540     0.94700
N99         N  0.86679481  0.49329587  0.86814717     0.00500
C100        C  0.87274198  0.48435858  0.83259640     0.03000
C101        C  0.84027196  0.48006931  0.81418610    -0.19800
C102        C  0.81301025  0.48717380  0.83873087    -0.20000
C103        C  0.82988278  0.49573515  0.87112965     0.02900
H104        H  0.83682732  0.47437718  0.78546130     0.16700
H105        H  0.78402754  0.48728406  0.83324130     0.16800
C106        C  0.98256918  0.53095648  0.27458375     0.90400
C107        C  0.01624880  0.53283481  0.24953891    -0.49800
C108        C  0.02138720  0.50148584  0.22967369     0.13300
C109        C  0.99348222  0.47120860  0.23732994     0.24300
C110        C  0.95101742  0.52142771  0.24891730    -0.50500
C111        C  0.95723744  0.49056919  0.22863970     0.13400
C112        C  0.98830753  0.49716932  0.29839512    -0.50100
C113        C  0.99438484  0.46597116  0.27925157     0.14000
H114        H  0.03323754  0.55711013  0.24652492     0.18500
H115        H  0.99819514  0.44566874  0.22146186     0.04300
H116        H  0.92771439  0.53934364  0.24459144     0.18800
H117        H  0.98889190  0.49805597  0.32801014     0.18600
N118        N  0.87441457  0.49122022  0.11681155     0.00500
C119        C  0.88175554  0.47850703  0.15101451     0.03000
C120        C  0.84995613  0.47052146  0.16954688    -0.19800
C121        C  0.82178673  0.47859154  0.14648078    -0.20000
C122        C  0.83742137  0.49143303  0.11480619     0.02900
H123        H  0.84748147  0.46154348  0.19759187     0.16700
H124        H  0.79298293  0.47600287  0.15238372     0.16800
N125        N  0.12866689  0.51612237  0.87101201     0.00500
C126        C  0.12322521  0.51198215  0.83450921     0.03000
C127        C  0.15561189  0.51429458  0.81555259    -0.19800
C128        C  0.18241316  0.51988907  0.84084618    -0.20000
C129        C  0.16535490  0.52099612  0.87427482     0.02900
H130        H  0.15934063  0.51194885  0.78638874     0.16700
H131        H  0.21137456  0.52193081  0.83554102     0.16800
O132        O  0.45533699  0.47254467  0.01986947    -0.69000
O133        O  0.52668479  0.55545373  0.03969890    -0.70000
O134        O  0.44845622  0.54753708  0.04008321    -0.58600
O135        O  0.53333371  0.47917328  0.01920853    -0.67000
O136        O  0.53103244  0.49555637  0.96101204    -0.66600
O137        O  0.44845020  0.56608465  0.98247587    -0.57800
O138        O  0.52693201  0.57073561  0.98117699    -0.70300
O139        O  0.45232909  0.49065613  0.96221994    -0.69100
Cu140      Cu  0.49112071  0.51316030  0.03175198     1.04600
Cu141      Cu  0.48964861  0.53125990  0.96971451     1.04300
C142        C  0.44176894  0.46932570  0.98795013     0.97200
C143        C  0.53850097  0.57572517  0.01364429     0.96300
C144        C  0.43485335  0.56723214  0.01457626     0.88500
C145        C  0.54546400  0.47659002  0.98659594     0.94700
N146        N  0.61943553  0.64197654  0.00726133     0.00500
C147        C  0.65615140  0.63708794  0.00653803     0.03000
C148        C  0.67399509  0.66901109  0.01603263    -0.19800
C149        C  0.64752101  0.69497209  0.02211305    -0.20000
C150        C  0.61448481  0.67786452  0.01635286     0.02900
H151        H  0.70316163  0.67311773  0.01778913     0.16700
H152        H  0.65194511  0.72361128  0.02867913     0.16800
C153        C  0.49827329  0.23218957  0.96323643     0.90400
C154        C  0.46441284  0.25637659  0.96814436    -0.49800
C155        C  0.46625261  0.27903156  0.99767044     0.13300
C156        C  0.50141045  0.27472153  0.02013212     0.24300
C157        C  0.53030231  0.25935975  0.96218082    -0.50500
C158        C  0.53164334  0.28204907  0.99181667     0.13400
C159        C  0.50234892  0.21111355  0.99878958    -0.50100
C160        C  0.50389096  0.23297111  0.02863204     0.14000
H161        H  0.44184951  0.25686399  0.94899364     0.18500
H162        H  0.50268179  0.29284035  0.04441352     0.04300
H163        H  0.54900209  0.26170432  0.93931392     0.18800
H164        H  0.50353143  0.18127488  0.00033073     0.18600
O165        O  0.44906941  0.98820999  0.96146306    -0.69000
O166        O  0.47392124  0.05987618  0.04223546    -0.70000
O167        O  0.46594013  0.06447318  0.96392642    -0.58600
O168        O  0.45749312  0.98255642  0.03947026    -0.67000
O169        O  0.51548151  0.96826475  0.02990839    -0.66600
O170        O  0.52509355  0.05275865  0.95918314    -0.57800
O171        O  0.53215177  0.04456880  0.03669971    -0.70300
O172        O  0.50771812  0.97580567  0.95338712    -0.69100
Cu173      Cu  0.45952369  0.02427314  0.00205761     1.04600
Cu174      Cu  0.52209810  0.01003572  0.99453892     1.04300
C175        C  0.47431246  0.97086791  0.94467624     0.97200
C176        C  0.50705829  0.06293098  0.05267419     0.96300
C177        C  0.49709272  0.07134870  0.94969615     0.88500
C178        C  0.48523444  0.96212996  0.04601664     0.94700
N179        N  0.47123187  0.88909833  0.87981855     0.00500
C180        C  0.46665875  0.85246577  0.88516200     0.03000
C181        C  0.45393469  0.83586880  0.85393840    -0.19800
C182        C  0.45118080  0.86311402  0.82803145    -0.20000
C183        C  0.46212807  0.89536084  0.84446926     0.02900
H184        H  0.44867827  0.80688055  0.84998202     0.16700
H185        H  0.44412762  0.85938046  0.79965458     0.16800
C186        C  0.53303072  0.99843669  0.27207877     0.90400
C187        C  0.51525540  0.96778257  0.24964115    -0.49800
C188        C  0.48395449  0.97873196  0.23245664     0.13300
C189        C  0.47303149  0.01886917  0.24015656     0.24300
C190        C  0.53831999  0.03033235  0.24506931    -0.50500
C191        C  0.50690928  0.04071784  0.22794447     0.13400
C192        C  0.50393068  0.01126286  0.29854031    -0.50100
C193        C  0.47264400  0.02199862  0.28230297     0.14000
H194        H  0.52723723  0.94071609  0.24611702     0.18500
H195        H  0.44736079  0.02761429  0.22664041     0.04300
H196        H  0.56458862  0.04289437  0.23935899     0.18800
H197        H  0.50772316  0.01182506  0.32793745     0.18600
N198        N  0.45763969  0.89860561  0.12488200     0.00500
C199        C  0.45860212  0.86183013  0.11808488     0.03000
C200        C  0.45151953  0.84209579  0.14944175    -0.19800
C201        C  0.44646493  0.86729412  0.17674845    -0.20000
C202        C  0.45043256  0.90155439  0.16106645     0.02900
H203        H  0.45167008  0.81248926  0.15246754     0.16700
H204        H  0.44278106  0.86121037  0.20540283     0.16800
N205        N  0.48343640  0.13290684  0.86618790     0.00500
C206        C  0.47974214  0.12871015  0.82964631     0.03000
C207        C  0.48236951  0.16213053  0.81197166    -0.19800
C208        C  0.48766409  0.18814562  0.83849337    -0.20000
C209        C  0.48835509  0.16953170  0.87126402     0.02900
H210        H  0.48164036  0.16692968  0.78286375     0.16700
H211        H  0.49092075  0.21742705  0.83431699     0.16800
O212        O  0.96513229  0.53807023  0.45507207    -0.69000
O213        O  0.96388835  0.44789885  0.52232620    -0.70000
O214        O  0.95844810  0.52515966  0.53224578    -0.58600
O215        O  0.96846102  0.46015344  0.44469326    -0.67000
O216        O  0.02868895  0.46119246  0.44973918    -0.66600
O217        O  0.01849645  0.53009488  0.53732999    -0.57800
O218        O  0.02408869  0.45187330  0.52654108    -0.70300
O219        O  0.02528629  0.53995921  0.46059048    -0.69100
Cu220      Cu  0.96189575  0.49274899  0.48835962     1.04600
Cu221      Cu  0.02621752  0.49590528  0.49364975     1.04300
C222        C  0.99583984  0.55327246  0.44765458     0.97200
C223        C  0.99426755  0.43598409  0.53497651     0.96300
C224        C  0.98632564  0.53792428  0.54862264     0.88500
C225        C  0.99978985  0.44976766  0.43367937     0.94700
N226        N  0.98528994  0.61722474  0.61623302     0.00500
C227        C  0.97490785  0.60895850  0.65097586     0.03000
C228        C  0.96191797  0.63988758  0.66834301    -0.19800
C229        C  0.96442002  0.66835126  0.64380098    -0.20000
C230        C  0.97899920  0.65388188  0.61231976     0.02900
H231        H  0.95293372  0.64184811  0.69637250     0.16700
H232        H  0.95716980  0.69675322  0.64868271     0.16800
O233        O  0.46978637  0.99600277  0.45651512    -0.69000
O234        O  0.54639160  0.96619307  0.53163532    -0.70000
O235        O  0.46855098  0.97967267  0.53346219    -0.58600
O236        O  0.54733152  0.98239808  0.45465401    -0.67000
O237        O  0.55993271  0.03988382  0.46993090    -0.66600
O238        O  0.47898206  0.03834431  0.54563019    -0.57800
O239        O  0.55576699  0.02436394  0.54667267    -0.70300
O240        O  0.48285497  0.05424999  0.46813742    -0.69100
Cu241      Cu  0.50761788  0.97903222  0.49369588     1.04600
Cu242      Cu  0.51961374  0.04123672  0.50794978     1.04300
C243        C  0.46483745  0.03023764  0.45008730     0.97200
C244        C  0.56296963  0.99021946  0.55100785     0.96300
C245        C  0.46142934  0.00860613  0.55200314     0.88500
C246        C  0.56638699  0.01159519  0.45029312     0.94700
N247        N  0.62851722  0.98253828  0.63272273     0.00500
C248        C  0.62519615  0.97998333  0.66947105     0.03000
C249        C  0.65548830  0.96383420  0.68486165    -0.19800
C250        C  0.67919864  0.95702537  0.65676142    -0.20000
C251        C  0.66221622  0.96903252  0.62540929     0.02900
H252        H  0.66020524  0.95848776  0.71349569     0.16700
H253        H  0.70660552  0.94627359  0.65916226     0.16800
C254        C  0.22423213  0.03308777  0.50820896     0.90400
C255        C  0.24938875  0.01892393  0.53847684    -0.49800
C256        C  0.27228756  0.99162464  0.52722761     0.13300
C257        C  0.26733460  0.98042141  0.48732371     0.24300
C258        C  0.25006399  0.04445222  0.47725551    -0.50500
C259        C  0.27304501  0.01683910  0.46676298     0.13400
C260        C  0.20393920  0.99957302  0.49440567    -0.50100
C261        C  0.22620829  0.97192592  0.48366779     0.14000
H262        H  0.25035220  0.03067506  0.56564678     0.18500
H263        H  0.28572924  0.95783654  0.47855376     0.04300
H264        H  0.25141331  0.07211974  0.46611624     0.18800
H265        H  0.17438922  0.99709006  0.49493363     0.18600
O266        O  0.03833005  0.02658935  0.53707635    -0.69000
O267        O  0.96095754  0.95280886  0.50684532    -0.70000
O268        O  0.03616750  0.94795528  0.52773623    -0.58600
O269        O  0.96260972  0.03155335  0.51481040    -0.67000
O270        O  0.98086863  0.03722844  0.45748959    -0.66600
O271        O  0.05553565  0.95619375  0.47110775    -0.57800
O272        O  0.98016908  0.95793782  0.44981142    -0.70300
O273        O  0.05555691  0.03541033  0.47983185    -0.69100
Cu274      Cu  0.99895747  0.98963392  0.52360211     1.04600
Cu275      Cu  0.01854695  0.99693328  0.46256093     1.04300
C276        C  0.05889977  0.04271351  0.51379633     0.97200
C277        C  0.95890959  0.94310706  0.47346819     0.96300
C278        C  0.05729280  0.93881819  0.50142045     0.88500
C279        C  0.96020798  0.04740541  0.48365917     0.94700
N280        N  0.87939755  0.87405302  0.46894142     0.00500
C281        C  0.84318328  0.87826784  0.46265669     0.03000
C282        C  0.82804815  0.84618292  0.44967644    -0.19800
C283        C  0.85559325  0.82068277  0.44883043    -0.20000
C284        C  0.88646111  0.83820409  0.46132815     0.02900
H285        H  0.79955343  0.84114072  0.44392920     0.16700
H286        H  0.85270008  0.79173582  0.44273025     0.16800
C287        C  0.96602542  0.21611988  0.48788933     0.90400
C288        C  0.95951621  0.24358502  0.51909114    -0.49800
C289        C  0.98852065  0.26648032  0.52498813     0.13300
C290        C  0.02131470  0.25926121  0.49990157     0.24300
C291        C  0.97635188  0.24011251  0.45488947    -0.50500
C292        C  0.00521777  0.26300266  0.46146806     0.13400
C293        C  0.00057449  0.19562248  0.49803963    -0.50100
C294        C  0.02938287  0.21787637  0.50433157     0.14000
H295        H  0.93435131  0.24507531  0.53463631     0.18500
H296        H  0.04507482  0.27744682  0.50510625     0.04300
H297        H  0.96166724  0.23977232  0.42921329     0.18800
H298        H  0.00217540  0.16582900  0.50024320     0.18600
N299        N  0.87578219  0.10983496  0.48457220     0.00500
C300        C  0.83933763  0.10393532  0.48220251     0.03000
C301        C  0.82155804  0.13448034  0.46881949    -0.19800
C302        C  0.84775155  0.16079171  0.46329245    -0.20000
C303        C  0.88051603  0.14519808  0.47330782     0.02900
H304        H  0.79253515  0.13761997  0.46454541     0.16700
H305        H  0.84316181  0.18886849  0.45459750     0.16800
N306        N  0.13766551  0.87163895  0.48896035     0.00500
C307        C  0.13239941  0.83581575  0.49826140     0.03000
C308        C  0.16505651  0.81704429  0.49935093    -0.19800
C309        C  0.19170557  0.84189861  0.49031277    -0.20000
C310        C  0.17417316  0.87472102  0.48369160     0.02900
H311        H  0.16897232  0.78814686  0.50526340     0.16700
H312        H  0.22072166  0.83668294  0.48897368     0.16800
N313        N  0.37919033  0.98185390  0.61204276     0.00500
C314        C  0.34367347  0.97288102  0.60683425     0.03000
C315        C  0.32505952  0.97096219  0.63942352    -0.19800
C316        C  0.34984000  0.97871458  0.66616126    -0.20000
C317        C  0.38252737  0.98538439  0.64882809     0.02900
H318        H  0.29621570  0.96594822  0.64320772     0.16700
H319        H  0.34453157  0.97974176  0.69516117     0.16800
N320        N  0.98995287  0.37251696  0.61795304     0.00500
C321        C  0.99450896  0.37588553  0.65460528     0.03000
C322        C  0.00177609  0.34225283  0.67040589    -0.19800
C323        C  0.00143845  0.31688864  0.64282830    -0.20000
C324        C  0.99410001  0.33593100  0.61113563     0.02900
H325        H  0.00696761  0.33679002  0.69893662     0.16700
H326        H  0.00579884  0.28758710  0.64561772     0.16800
N327        N  0.12365203  0.12487262  0.52767333     0.00500
C328        C  0.11935028  0.16123825  0.53445826     0.03000
C329        C  0.14939790  0.17563102  0.55182596    -0.19800
C330        C  0.17388716  0.14731053  0.55515150    -0.20000
C331        C  0.15758468  0.11685406  0.53987805     0.02900
H332        H  0.15370430  0.20396035  0.55965337     0.16700
H333        H  0.20152541  0.14934556  0.56524042     0.16800
N334        N  0.62894793  0.99364110  0.36768207     0.00500
C335        C  0.62594805  0.98943081  0.33107438     0.03000
C336        C  0.65924638  0.99333775  0.31407118    -0.19800
C337        C  0.68423581  0.99947407  0.34113715    -0.20000
C338        C  0.66507078  0.99942943  0.37347963     0.02900
H339        H  0.66471400  0.99206793  0.28511535     0.16700
H340        H  0.71337178  0.00268197  0.33769937     0.16800
N341        N  0.97991324  0.62575618  0.37361892     0.00500
C342        C  0.98805841  0.66144342  0.38083411     0.03000
C343        C  0.98997307  0.68167553  0.34902615    -0.19800
C344        C  0.98310184  0.65772939  0.32100790    -0.20000
C345        C  0.97697943  0.62389000  0.33685048     0.02900
H346        H  0.99629165  0.71063073  0.34645226     0.16700
H347        H  0.98384195  0.66402145  0.29217606     0.16800
N348        N  0.61330475  0.39674580  0.98509171     0.00500
C349        C  0.64800949  0.40478250  0.97457595     0.03000
C350        C  0.66614818  0.37330080  0.96412695    -0.19800
C351        C  0.64213842  0.34469028  0.96856733    -0.20000
C352        C  0.61026220  0.35967665  0.98180211     0.02900
H353        H  0.69439498  0.37113693  0.95584193     0.16700
H354        H  0.64760276  0.31592539  0.96345446     0.16800
N355        N  0.50779912  0.13805370  0.12565264     0.00500
C356        C  0.51517285  0.12895199  0.16081583     0.03000
C357        C  0.52599095  0.15956390  0.18014036    -0.19800
C358        C  0.52498379  0.18876908  0.15629114    -0.20000
C359        C  0.51342141  0.17489976  0.12335657     0.02900
H360        H  0.53298670  0.16069246  0.20875759     0.16700
H361        H  0.53159352  0.21707508  0.16241457     0.16800
N362        N  0.36247475  0.64272788  0.01067855     0.00500
C363        C  0.32709219  0.63307805  0.01578542     0.03000
C364        C  0.30596656  0.66382977  0.02214585    -0.19800
C365        C  0.32902984  0.69363076  0.02076993    -0.20000
C366        C  0.36325335  0.67987798  0.01339758     0.02900
H367        H  0.27679588  0.66458141  0.02653157     0.16700
H368        H  0.32159990  0.72217186  0.02444471     0.16800
N369        N  0.11184644  0.49303241  0.12321328     0.00500
C370        C  0.10599052  0.49630871  0.15962875     0.03000
C371        C  0.13811375  0.50201873  0.17818719    -0.19800
C372        C  0.16527027  0.50188029  0.15262556    -0.20000
C373        C  0.14860350  0.49620829  0.11949436     0.02900
H374        H  0.14138495  0.50599252  0.20721909     0.16700
H375        H  0.19413659  0.50532818  0.15765222     0.16800
N376        N  0.02381157  0.36806913  0.37255958     0.00500
C377        C  0.02909656  0.33143180  0.37736483     0.03000
C378        C  0.03063831  0.31358430  0.34429911    -0.19800
C379        C  0.02599240  0.33999206  0.31789356    -0.20000
C380        C  0.02158894  0.37296237  0.33582027     0.02900
H381        H  0.03279446  0.28425366  0.33992056     0.16700
H382        H  0.02455319  0.33542006  0.28880414     0.16800
N383        N  0.38372782  0.03913500  0.38421034     0.00500
C384        C  0.34760580  0.04442748  0.39025296     0.03000
C385        C  0.33126771  0.06126257  0.36080980    -0.19800
C386        C  0.35794149  0.06577924  0.33498632    -0.20000
C387        C  0.38956560  0.05166507  0.34972290     0.02900
H388        H  0.30262841  0.06768346  0.35768009     0.16700
H389        H  0.35405916  0.07569345  0.30742524     0.16800
N390        N  0.37743704  0.38672937  0.99502419     0.00500
C391        C  0.34174754  0.39256591  0.98670493     0.03000
C392        C  0.32374231  0.35950583  0.98265663    -0.19800
C393        C  0.34896422  0.33225784  0.98874666    -0.20000
C394        C  0.38138173  0.34965828  0.99661951     0.02900
H395        H  0.29503132  0.35561934  0.97710335     0.16700
H396        H  0.34413543  0.30292684  0.98774696     0.16800
C397        C  0.08902703  0.18331757  0.52343058    -0.09300
C398        C  0.06350921  0.20199258  0.51469293    -0.10900
C399        C  0.93622398  0.19004047  0.48158277    -0.09300
C400        C  0.91270377  0.16727209  0.47758799    -0.10900
C401        C  0.98836032  0.29530420  0.55206841    -0.09300
C402        C  0.98990976  0.31710380  0.57680943    -0.10900
C403        C  0.01737569  0.29021923  0.43537950    -0.09300
C404        C  0.02474409  0.31151802  0.41115836    -0.10900
C405        C  0.09763877  0.10008451  0.51069640    -0.12500
C406        C  0.08747290  0.06853545  0.52742501    -0.27700
H407        H  0.08375378  0.10870346  0.48599600     0.16500
H408        H  0.09895873  0.06259023  0.55405947     0.17100
C409        C  0.11100058  0.90057713  0.48288142    -0.12500
C410        C  0.08343427  0.90758414  0.50634913    -0.27700
H411        H  0.11541029  0.91925837  0.46015767     0.16500
H412        H  0.08067414  0.89060756  0.53057406     0.17100
C413        C  0.93390308  0.07794988  0.47682346    -0.12500
C414        C  0.90296852  0.08319523  0.49604086    -0.27700
H415        H  0.93867734  0.09503511  0.45297439     0.16500
H416        H  0.89615442  0.06405880  0.51777415     0.17100
C417        C  0.93265004  0.91391204  0.46180523    -0.12500
C418        C  0.90450212  0.90167596  0.48245763    -0.27700
H419        H  0.93618791  0.90235809  0.43477640     0.16500
H420        H  0.89880207  0.91463498  0.50845835     0.17100
C421        C  0.17827323  0.08516481  0.52981961    -0.09300
C422        C  0.19917780  0.06172277  0.52022585    -0.10900
C423        C  0.21082565  0.93641510  0.47668503    -0.09300
C424        C  0.19359587  0.90831350  0.47707726    -0.10900
C425        C  0.30193284  0.97910791  0.54965974    -0.09300
C426        C  0.32455297  0.97365055  0.57276022    -0.10900
C427        C  0.32669905  0.03148640  0.42085885    -0.09300
C428        C  0.30326403  0.02328507  0.44244315    -0.10900
C429        C  0.40988153  0.02335204  0.40949366    -0.12500
C430        C  0.43889315  0.04294150  0.42124120    -0.27700
H431        H  0.40370061  0.99710709  0.42223940     0.16500
H432        H  0.44256150  0.07060596  0.41064761     0.17100
C433        C  0.59673637  0.01319841  0.42312180    -0.12500
C434        C  0.59964675  0.99040022  0.39425138    -0.27700
H435        H  0.61665393  0.03504014  0.42617489     0.16500
H436        H  0.57806745  0.97061460  0.38924944     0.17100
C437        C  0.59129353  0.97775339  0.57760113    -0.12500
C438        C  0.60185797  0.99711275  0.60719207    -0.27700
H439        H  0.60301789  0.95067156  0.57345389     0.16500
H440        H  0.58806960  0.02268995  0.61368383     0.17100
C441        C  0.43335974  0.00802505  0.58163790    -0.12500
C442        C  0.40709945  0.98213345  0.58389033    -0.27700
H443        H  0.43358066  0.03016312  0.60140824     0.16500
H444        H  0.40514950  0.96185224  0.56231129     0.17100
C445        C  0.99846827  0.58679245  0.42449280    -0.12500
C446        C  0.97398051  0.59553178  0.39870781    -0.27700
H447        H  0.02300126  0.60334050  0.42672303     0.16500
H448        H  0.95124864  0.57707164  0.39379795     0.17100
C449        C  0.00165413  0.42430205  0.40212493    -0.12500
C450        C  0.02447821  0.39536687  0.40129622    -0.27700
H451        H  0.98097492  0.42694816  0.38116826     0.16500
H452        H  0.04216855  0.39055764  0.42455574     0.17100
C453        C  0.97998994  0.56099895  0.58126450    -0.12500
C454        C  0.99796919  0.59244196  0.58812115    -0.27700
H455        H  0.95629369  0.55441118  0.59781355     0.16500
H456        H  0.01885443  0.60173667  0.56921758     0.17100
C457        C  0.99612349  0.40298791  0.55866220    -0.12500
C458        C  0.98217580  0.40221517  0.59262242    -0.27700
H459        H  0.01433223  0.38116026  0.55011704     0.16500
H460        H  0.96778157  0.42629383  0.60257290     0.17100
C461        C  0.50930505  0.09383988  0.17835631    -0.09300
C462        C  0.50666296  0.06844233  0.19954115    -0.10900
C463        C  0.46655797  0.95605445  0.20524864    -0.09300
C464        C  0.45655814  0.93385472  0.18297189    -0.10900
C465        C  0.42018737  0.04287066  0.32690404    -0.09300
C466        C  0.44287972  0.03437080  0.30469493    -0.10900
C467        C  0.56612820  0.98838221  0.29183707    -0.09300
C468        C  0.59261345  0.98618974  0.31098858    -0.10900
C469        C  0.49564358  0.11423376  0.09657920    -0.12500
C470        C  0.51705058  0.08700321  0.08388539    -0.27700
H471        H  0.47026064  0.12064392  0.08276089     0.16500
H472        H  0.54367671  0.08304873  0.09620328     0.17100
C473        C  0.50128940  0.10116164  0.92232169    -0.12500
C474        C  0.47875173  0.10454292  0.89357286    -0.27700
H475        H  0.52495862  0.11895581  0.92424275     0.16500
H476        H  0.45753632  0.08411270  0.88957300     0.17100
C477        C  0.45911959  0.92910825  0.09944371    -0.12500
C478        C  0.48302839  0.93054992  0.07170649    -0.27700
H479        H  0.44147147  0.95258430  0.10429369     0.16500
H480        H  0.50308130  0.90880966  0.06889236     0.17100
C481        C  0.46422809  0.94525709  0.91490161    -0.12500
C482        C  0.48408274  0.91533655  0.90637107    -0.27700
H483        H  0.43831801  0.94956407  0.90124434     0.16500
H484        H  0.50807457  0.90863459  0.92238072     0.17100
C485        C  0.50665028  0.21630651  0.06423490    -0.09300
C486        C  0.50913246  0.19734337  0.09117265    -0.10900
C487        C  0.49591232  0.20765590  0.93171995    -0.09300
C488        C  0.49259187  0.18810390  0.90550479    -0.10900
C489        C  0.55625586  0.31316357  0.99314828    -0.09300
C490        C  0.57871438  0.33731955  0.98999177    -0.10900
C491        C  0.43956278  0.30770503  0.00323023    -0.09300
C492        C  0.41484894  0.32964362  0.00252989    -0.10900
C493        C  0.41282830  0.44168588  0.98052672    -0.12500
C494        C  0.40532889  0.41352912  0.00324633    -0.27700
H495        H  0.39749851  0.44420740  0.95534589     0.16500
H496        H  0.42238459  0.40905791  0.02701940     0.17100
C497        C  0.40264089  0.59066551  0.02253104    -0.12500
C498        C  0.39300303  0.61939684  0.00146693    -0.27700
H499        H  0.38700469  0.58491540  0.04704389     0.16500
H500        H  0.41030746  0.62730752  0.97872181     0.17100
C501        C  0.56550438  0.60521758  0.02156113    -0.12500
C502        C  0.59195188  0.61505578  0.99786603    -0.27700
H503        H  0.56522548  0.61755108  0.04847159     0.16500
H504        H  0.59474114  0.60020135  0.97238591     0.17100
C505        C  0.57670118  0.45213057  0.97775822    -0.12500
C506        C  0.58505526  0.42173543  0.99708632    -0.27700
H507        H  0.59192932  0.45791004  0.95299565     0.16500
H508        H  0.56776672  0.41366919  0.01978825     0.17100
C509        C  0.04775488  0.49857427  0.20074882    -0.09300
C510        C  0.07161234  0.49646548  0.17829378    -0.10900
C511        C  0.93661510  0.48349354  0.19582596    -0.09300
C512        C  0.91561352  0.48067846  0.17065769    -0.10900
C513        C  0.00443516  0.43263333  0.29816211    -0.09300
C514        C  0.01295294  0.40649525  0.31664157    -0.10900
C515        C  0.97680590  0.56404376  0.29653440    -0.09300
C516        C  0.97483520  0.59061837  0.31593404    -0.10900
C517        C  0.08487967  0.48449318  0.09550765    -0.12500
C518        C  0.08015202  0.50578011  0.06565237    -0.27700
H519        H  0.06595388  0.46209403  0.10058132     0.16500
H520        H  0.09660229  0.53044019  0.06282038     0.17100
C521        C  0.10188537  0.51827536  0.90037695    -0.12500
C522        C  0.07302899  0.49527455  0.90284822    -0.27700
H523        H  0.10687831  0.53724853  0.92261778     0.16500
H524        H  0.07043895  0.47356378  0.88279677     0.17100
C525        C  0.89945284  0.50155233  0.08771550    -0.12500
C526        C  0.92620798  0.47862909  0.07676654    -0.27700
H527        H  0.89351810  0.52581816  0.07147577     0.16500
H528        H  0.92933506  0.45284785  0.09144281     0.17100
C529        C  0.89355203  0.50136898  0.89634617    -0.12500
C530        C  0.91706400  0.47548549  0.90886494    -0.27700
H531        H  0.89274509  0.52808082  0.90942791     0.16500
H532        H  0.91560984  0.44818734  0.89705563     0.17100
C533        C  0.19227827  0.49448889  0.06306721    -0.09300
C534        C  0.16954568  0.49346072  0.08668341    -0.10900
C535        C  0.20506739  0.51878234  0.93415630    -0.09300
C536        C  0.18595970  0.52144942  0.90758449    -0.10900
C537        C  0.31148846  0.59688815  0.01191206    -0.09300
C538        C  0.29236941  0.56992271  0.00997129    -0.10900
C539        C  0.32211167  0.42701589  0.98797171    -0.09300
C540        C  0.29918346  0.45075946  0.99098624    -0.10900
C541        C  0.09820846  0.81694562  0.50155822    -0.09300
C542        C  0.07232174  0.79662933  0.50278770    -0.10900
C543        C  0.91768677  0.81768990  0.47342778    -0.09300
C544        C  0.94194197  0.79794629  0.48381616    -0.10900
C545        C  0.00000956  0.69873762  0.44081800    -0.09300
C546        C  0.99400943  0.67802447  0.41590749    -0.10900
C547        C  0.99260801  0.70024395  0.55826763    -0.09300
C548        C  0.98685320  0.67652258  0.58077244    -0.10900
C549        C  0.81999336  0.07117946  0.49260418    -0.09300
C550        C  0.79820347  0.04724446  0.49903521    -0.10900
C551        C  0.79767146  0.93048797  0.48239367    -0.09300
C552        C  0.82097428  0.90898085  0.47336615    -0.10900
C553        C  0.70108548  0.99799180  0.43535484    -0.09300
C554        C  0.68316079  0.99983442  0.40803800    -0.10900
C555        C  0.70186108  0.97759316  0.56632637    -0.09300
C556        C  0.68184444  0.97351042  0.59195862    -0.10900
C557        C  0.47993252  0.09437101  0.81016668    -0.09300
C558        C  0.48418491  0.06878840  0.78972949    -0.10900
C559        C  0.47923453  0.95027261  0.80060832    -0.09300
C560        C  0.47068026  0.92781615  0.82340369    -0.10900
C561        C  0.43862997  0.99872927  0.69117757    -0.09300
C562        C  0.41480738  0.99347740  0.66927516    -0.10900
C563        C  0.56888005  0.99799396  0.71008271    -0.09300
C564        C  0.59454737  0.99153222  0.69076135    -0.10900
C565        C  0.08925850  0.50696257  0.81570912    -0.09300
C566        C  0.06419240  0.50283576  0.79489498    -0.10900
C567        C  0.90677334  0.48626025  0.81318322    -0.09300
C568        C  0.93292322  0.48888925  0.79339098    -0.10900
C569        C  0.99447430  0.40944977  0.67564944    -0.09300
C570        C  0.99668288  0.43366739  0.69809247    -0.10900
C571        C  0.98170651  0.57520279  0.67085020    -0.09300
C572        C  0.98718749  0.55185257  0.69381186    -0.10900
C573        C  0.47766016  0.82156266  0.06170812    -0.09300
C574        C  0.46879741  0.84361277  0.08467638    -0.10900
C575        C  0.48217551  0.81119864  0.94253966    -0.09300
C576        C  0.47559154  0.83203351  0.91771877    -0.10900
C577        C  0.42224011  0.72144479  0.00918262    -0.09300
C578        C  0.39530726  0.70252907  0.01050625    -0.10900
C579        C  0.55524794  0.71912324  0.01289909    -0.09300
C580        C  0.58083905  0.69829555  0.01476132    -0.10900
C581        C  0.79418844  0.50830240  0.06014398    -0.09300
C582        C  0.81575090  0.50209610  0.08405383    -0.10900
C583        C  0.80942246  0.50621648  0.90290257    -0.09300
C584        C  0.78995981  0.51280994  0.92856001    -0.10900
C585        C  0.66743004  0.43879005  0.98033253    -0.09300
C586        C  0.69044871  0.46194595  0.98564831    -0.10900
C587        C  0.69777290  0.57912186  0.99567075    -0.09300
C588        C  0.67564442  0.60356265  0.99861859    -0.10900
loop_ 
_geom_bond_atom_site_label_1 
_geom_bond_atom_site_label_2 
_geom_bond_distance 
_geom_bond_site_symmetry_2 
_ccdc_geom_bond_type 
C1            C2   1.534       .  S
C1            C7   1.515   1_554  S
C1            C5   1.539       .  S
C1          C581   1.462       .  S
C2            H9   1.087       .  S
C2            C3   1.369   1_554  D
C3            C4   1.542       .  S
C3          C587   1.447       .  S
C4            C8   1.553       .  S
C4            C6   1.538       .  S
C4           H10   1.111       .  S
C5           H11   1.086       .  S
C5            C6   1.368   1_554  D
C6          C586   1.448       .  S
C7           H12   1.089       .  S
C7            C8   1.351       .  D
C8          C584   1.439       .  S
C13          C14   1.540   1_554  S
C13          C19   1.522       .  S
C13          C17   1.542       .  S
C13         C579   1.472       .  S
C14          H21   1.086       .  S
C14          C15   1.369       .  D
C15          C16   1.535   1_556  S
C15         C575   1.445       .  S
C16          C20   1.543       .  S
C16          C18   1.536       .  S
C16          H22   1.112       .  S
C17          H23   1.086       .  S
C17          C18   1.371       .  D
C18         C573   1.449       .  S
C19          H24   1.088       .  S
C19          C20   1.355       .  D
C20         C577   1.439       .  S
C25          C26   1.541       .  S
C25          C31   1.515   1_455  S
C25          C29   1.538       .  S
C25         C566   1.467       .  S
C26          H33   1.086       .  S
C26          C27   1.371       .  D
C27          C28   1.538   1_455  S
C27         C570   1.450   1_455  S
C28          C32   1.553       .  S
C28          C30   1.542       .  S
C28          H34   1.111       .  S
C29          H35   1.086       .  S
C29          C30   1.368   1_455  D
C30         C572   1.452       .  S
C31          H36   1.088       .  S
C31          C32   1.351       .  D
C32         C568   1.440       .  S
C37          C38   1.534       .  S
C37          C43   1.517   1_545  S
C37          C41   1.538   1_545  S
C37         C563   1.459   1_545  S
C38          H45   1.086       .  S
C38          C39   1.369       .  D
C39          C40   1.540       .  S
C39         C558   1.444       .  S
C40          C44   1.550       .  S
C40          C42   1.539   1_545  S
C40          H46   1.111       .  S
C41          H47   1.086       .  S
C41          C42   1.367       .  D
C42         C559   1.447       .  S
C43          H48   1.089       .  S
C43          C44   1.349   1_565  D
C44         C561   1.437   1_545  S
C49          C50   1.538       .  S
C49          C55   1.520       .  S
C49          C53   1.539   1_565  S
C49         C555   1.460       .  S
C50          H57   1.086       .  S
C50          C51   1.367       .  D
C51          C52   1.533       .  S
C51         C551   1.442       .  S
C52          C56   1.543       .  S
C52          C54   1.533   1_565  S
C52          H58   1.112       .  S
C53          H59   1.086       .  S
C53          C54   1.368       .  D
C54         C550   1.440       .  S
C55          H60   1.088       .  S
C55          C56   1.352       .  D
C56         C553   1.434       .  S
C61          C62   1.536       .  S
C61          C67   1.516       .  S
C61          C65   1.541       .  S
C61         C542   1.464       .  S
C62          H69   1.086       .  S
C62          C63   1.369       .  D
C63          C64   1.543   1_455  S
C63         C547   1.451   1_455  S
C64          C68   1.550       .  S
C64          C66   1.533   1_655  S
C64          H70   1.111       .  S
C65          H71   1.086       .  S
C65          C66   1.369       .  D
C66         C545   1.444       .  S
C67          H72   1.088       .  S
C67          C68   1.351   1_455  D
C68         C544   1.439       .  S
C73          C74   1.535       .  S
C73          C79   1.514   1_554  S
C73          C77   1.537       .  S
C73         C533   1.462       .  S
C74          H81   1.086       .  S
C74          C75   1.369   1_554  D
C75          C76   1.544       .  S
C75         C540   1.451       .  S
C76          C80   1.552       .  S
C76          C78   1.540   1_556  S
C76          H82   1.111       .  S
C77          H83   1.087       .  S
C77          C78   1.367       .  D
C78         C538   1.447       .  S
C79          H84   1.089       .  S
C79          C80   1.351       .  D
C80         C535   1.438       .  S
O85         Cu93   2.055       .  S
O85          C95   1.281       .  A
O86         Cu93   2.036   1_454  S
O86          C96   1.280       .  A
O87         Cu93   2.069   1_455  S
O87          C97   1.285       .  A
O88         Cu93   2.075   1_554  S
O88          C98   1.285       .  A
O89         Cu94   2.018   1_654  S
O89          C98   1.277       .  A
O90         Cu94   2.027       .  S
O90          C97   1.278       .  A
O91         Cu94   2.051   1_554  S
O91          C96   1.282       .  A
O92         Cu94   2.052   1_655  S
O92          C95   1.283       .  A
Cu93        Cu94   2.365   1_655  S
C95         C530   1.506       .  S
C96         C518   1.496       .  S
C97         C522   1.499       .  S
C98         C526   1.500       .  S
N99         C103   1.361       .  A
N99         C100   1.363       .  A
N99         C529   1.458       .  S
C100        C101   1.379       .  A
C100        C567   1.438       .  S
C101        C102   1.370       .  A
C101        H104   1.083       .  S
C102        C103   1.378       .  A
C102        H105   1.083       .  S
C103        C583   1.439       .  S
C106        C107   1.541   1_655  S
C106        C112   1.521       .  S
C106        C110   1.534       .  S
C106        C515   1.466       .  S
C107        H114   1.086       .  S
C107        C108   1.368       .  D
C108        C109   1.529   1_455  S
C108        C509   1.440       .  S
C109        C113   1.550       .  S
C109        C111   1.538       .  S
C109        H115   1.112       .  S
C110        H116   1.087       .  S
C110        C111   1.368       .  D
C111        C511   1.447       .  S
C112        H117   1.088       .  S
C112        C113   1.355       .  D
C113        C513   1.444   1_655  S
N118        C122   1.359       .  A
N118        C119   1.364       .  A
N118        C525   1.456       .  S
C119        C120   1.380       .  A
C119        C512   1.439       .  S
C120        C121   1.368       .  A
C120        H123   1.083       .  S
C121        C122   1.376       .  A
C121        H124   1.083       .  S
C122        C582   1.434       .  S
N125        C129   1.363       .  A
N125        C126   1.364       .  A
N125        C521   1.460       .  S
C126        C127   1.379       .  A
C126        C565   1.437       .  S
C127        C128   1.369       .  A
C127        H130   1.083       .  S
C128        C129   1.377       .  A
C128        H131   1.083       .  S
C129        C536   1.438       .  S
O132       Cu140   2.026       .  S
O132        C142   1.279   1_554  A
O133       Cu140   2.039       .  S
O133        C143   1.281       .  A
O134       Cu140   2.027       .  S
O134        C144   1.279       .  A
O135       Cu140   2.035       .  S
O135        C145   1.280   1_554  A
O136       Cu141   2.024       .  S
O136        C145   1.279       .  A
O137       Cu141   2.028       .  S
O137        C144   1.280   1_556  A
O138       Cu141   2.029       .  S
O138        C143   1.279   1_556  A
O139       Cu141   2.034       .  S
O139        C142   1.280       .  A
Cu140      Cu141   2.369   1_554  S
C142        C493   1.488       .  S
C143        C501   1.490       .  S
C144        C497   1.486       .  S
C145        C505   1.487       .  S
N146        C150   1.361       .  A
N146        C147   1.359       .  A
N146        C502   1.449   1_554  S
C147        C148   1.379       .  A
C147        C588   1.444   1_554  S
C148        C149   1.373       .  A
C148        H151   1.083       .  S
C149        C150   1.379       .  A
C149        H152   1.082       .  S
C150        C580   1.442       .  S
C153        C154   1.533       .  S
C153        C159   1.519       .  S
C153        C157   1.536       .  S
C153        C487   1.466       .  S
C154        H161   1.087       .  S
C154        C155   1.365       .  D
C155        C156   1.540   1_556  S
C155        C491   1.446   1_556  S
C156        C160   1.553       .  S
C156        C158   1.542   1_554  S
C156        H162   1.111       .  S
C157        H163   1.087       .  S
C157        C158   1.368       .  D
C158        C489   1.449       .  S
C159        H164   1.088   1_556  S
C159        C160   1.357   1_556  D
C160        C485   1.443       .  S
O165       Cu173   2.025   1_566  S
O165        C175   1.279       .  A
O166       Cu173   2.036       .  S
O166        C176   1.280       .  A
O167       Cu173   2.035   1_556  S
O167        C177   1.280       .  A
O168       Cu173   2.045   1_565  S
O168        C178   1.283       .  A
O169       Cu174   2.010   1_564  S
O169        C178   1.276       .  A
O170       Cu174   2.025       .  S
O170        C177   1.278       .  A
O171       Cu174   2.030   1_554  S
O171        C176   1.280       .  A
O172       Cu174   2.031   1_565  S
O172        C175   1.280       .  A
Cu173      Cu174   2.369   1_554  S
C175        C481   1.485       .  S
C176        C470   1.490       .  S
C177        C473   1.484       .  S
C178        C478   1.486       .  S
N179        C183   1.359       .  A
N179        C180   1.357       .  A
N179        C482   1.446       .  S
C180        C181   1.379       .  A
C180        C576   1.444       .  S
C181        C182   1.375       .  A
C181        H184   1.082       .  S
C182        C183   1.381       .  A
C182        H185   1.083       .  S
C183        C560   1.444       .  S
C186        C187   1.534       .  S
C186        C192   1.517   1_565  S
C186        C190   1.536   1_565  S
C186        C467   1.461       .  S
C187        H194   1.086       .  S
C187        C188   1.370       .  D
C188        C189   1.541   1_565  S
C188        C463   1.446       .  S
C189        C193   1.552       .  S
C189        C191   1.541       .  S
C189        H195   1.111       .  S
C190        H196   1.087       .  S
C190        C191   1.366       .  D
C191        C462   1.449       .  S
C192        H197   1.088       .  S
C192        C193   1.351       .  D
C193        C466   1.439       .  S
N198        C202   1.358       .  A
N198        C199   1.362       .  A
N198        C477   1.449       .  S
C199        C200   1.379       .  A
C199        C574   1.444       .  S
C200        C201   1.373       .  A
C200        H203   1.083       .  S
C201        C202   1.379       .  A
C201        H204   1.082       .  S
C202        C464   1.444       .  S
N205        C209   1.358       .  A
N205        C206   1.357       .  A
N205        C474   1.449       .  S
C206        C207   1.380       .  A
C206        C557   1.441       .  S
C207        C208   1.374       .  A
C207        H210   1.082       .  S
C208        C209   1.379       .  A
C208        H211   1.083       .  S
C209        C488   1.437       .  S
O212       Cu220   2.053       .  S
O212        C222   1.284       .  A
O213       Cu220   2.052       .  S
O213        C223   1.283       .  A
O214       Cu220   2.003       .  S
O214        C224   1.275       .  A
O215       Cu220   2.011       .  S
O215        C225   1.276       .  A
O216       Cu221   2.052       .  S
O216        C225   1.284   1_455  A
O217       Cu221   2.051       .  S
O217        C224   1.283   1_455  A
O218       Cu221   2.005       .  S
O218        C223   1.275   1_455  A
O219       Cu221   2.008       .  S
O219        C222   1.276   1_455  A
Cu220      Cu221   2.371   1_655  S
C222        C445   1.488       .  S
C223        C457   1.482       .  S
C224        C453   1.483       .  S
C225        C449   1.487   1_655  S
N226        C230   1.361       .  A
N226        C227   1.363       .  A
N226        C454   1.449       .  S
C227        C228   1.380       .  A
C227        C571   1.448       .  S
C228        C229   1.374       .  A
C228        H231   1.083       .  S
C229        C230   1.379       .  A
C229        H232   1.082       .  S
C230        C548   1.448       .  S
O233       Cu241   2.042       .  S
O233        C243   1.280   1_565  A
O234       Cu241   2.045       .  S
O234        C244   1.282       .  A
O235       Cu241   2.045       .  S
O235        C245   1.282   1_565  A
O236       Cu241   2.046       .  S
O236        C246   1.281   1_565  A
O237       Cu242   2.033       .  S
O237        C246   1.280       .  A
O238       Cu242   2.035       .  S
O238        C245   1.280       .  A
O239       Cu242   2.039       .  S
O239        C244   1.280   1_545  A
O240       Cu242   2.044       .  S
O240        C243   1.282       .  A
Cu241      Cu242   2.366   1_565  S
C243        C430   1.497       .  S
C244        C437   1.496       .  S
C245        C441   1.497       .  S
C246        C433   1.495       .  S
N247        C251   1.357       .  A
N247        C248   1.357       .  A
N247        C438   1.454       .  S
C248        C249   1.378       .  A
C248        C564   1.432       .  S
C249        C250   1.372       .  A
C249        H252   1.082       .  S
C250        C251   1.379       .  A
C250        H253   1.083       .  S
C251        C556   1.432       .  S
C254        C255   1.533       .  S
C254        C260   1.517   1_545  S
C254        C258   1.534       .  S
C254        C422   1.458       .  S
C255        H262   1.087       .  S
C255        C256   1.365   1_545  D
C256        C257   1.533       .  S
C256        C425   1.438       .  S
C257        C261   1.546       .  S
C257        C259   1.537   1_565  S
C257        H263   1.111       .  S
C258        H264   1.087       .  S
C258        C259   1.367       .  D
C259        C428   1.441       .  S
C260        H265   1.088       .  S
C260        C261   1.355       .  D
C261        C423   1.434       .  S
O266       Cu274   2.036   1_445  S
O266        C276   1.280       .  A
O267       Cu274   2.031       .  S
O267        C277   1.278       .  A
O268       Cu274   2.046   1_455  S
O268        C278   1.282       .  A
O269       Cu274   2.051   1_545  S
O269        C279   1.282       .  A
O270       Cu275   2.023   1_645  S
O270        C279   1.278       .  A
O271       Cu275   2.034       .  S
O271        C278   1.280       .  A
O272       Cu275   2.054   1_655  S
O272        C277   1.284       .  A
O273       Cu275   2.053   1_545  S
O273        C276   1.281       .  A
Cu274      Cu275   2.366   1_655  S
C276        C406   1.495       .  S
C277        C417   1.498       .  S
C278        C410   1.498       .  S
C279        C413   1.493       .  S
N280        C284   1.360       .  A
N280        C281   1.357       .  A
N280        C418   1.452       .  S
C281        C282   1.379       .  A
C281        C552   1.438       .  S
C282        C283   1.372       .  A
C282        H285   1.083       .  S
C283        C284   1.379       .  A
C283        H286   1.083       .  S
C284        C543   1.437       .  S
C287        C288   1.541       .  S
C287        C293   1.517   1_655  S
C287        C291   1.538       .  S
C287        C399   1.467       .  S
C288        H295   1.086       .  S
C288        C289   1.369       .  D
C289        C290   1.537   1_655  S
C289        C401   1.447       .  S
C290        C294   1.543       .  S
C290        C292   1.536       .  S
C290        H296   1.112       .  S
C291        H297   1.086       .  S
C291        C292   1.370   1_655  D
C292        C403   1.446       .  S
C293        H298   1.088       .  S
C293        C294   1.352       .  D
C294        C398   1.430       .  S
N299        C303   1.361       .  A
N299        C300   1.357       .  A
N299        C414   1.453       .  S
C300        C301   1.378       .  A
C300        C549   1.438       .  S
C301        C302   1.371       .  A
C301        H304   1.083       .  S
C302        C303   1.379       .  A
C302        H305   1.083       .  S
C303        C400   1.437       .  S
N306        C310   1.358       .  A
N306        C307   1.360       .  A
N306        C409   1.454       .  S
C307        C308   1.380       .  A
C307        C541   1.435       .  S
C308        C309   1.372       .  A
C308        H311   1.083       .  S
C309        C310   1.378       .  A
C309        H312   1.082       .  S
C310        C424   1.435       .  S
N313        C317   1.362       .  A
N313        C314   1.357       .  A
N313        C442   1.454       .  S
C314        C315   1.378       .  A
C314        C426   1.435       .  S
C315        C316   1.369       .  A
C315        H318   1.083       .  S
C316        C317   1.378       .  A
C316        H319   1.083       .  S
C317        C562   1.434       .  S
N320        C324   1.364       .  A
N320        C321   1.362       .  A
N320        C458   1.452       .  S
C321        C322   1.379   1_655  A
C321        C569   1.447       .  S
C322        C323   1.372       .  A
C322        H325   1.082       .  S
C323        C324   1.379   1_455  A
C323        H326   1.083       .  S
C324        C402   1.444       .  S
N327        C331   1.355       .  A
N327        C328   1.356       .  A
N327        C405   1.455       .  S
C328        C329   1.378       .  A
C328        C397   1.430       .  S
C329        C330   1.372       .  A
C329        H332   1.082       .  S
C330        C331   1.380       .  A
C330        H333   1.083       .  S
C331        C421   1.429       .  S
N334        C338   1.359       .  A
N334        C335   1.357       .  A
N334        C434   1.455       .  S
C335        C336   1.378       .  A
C335        C468   1.434       .  S
C336        C337   1.372       .  A
C336        H339   1.082       .  S
C337        C338   1.379       .  A
C337        H340   1.083   1_565  S
C338        C554   1.433       .  S
N341        C345   1.356       .  A
N341        C342   1.359       .  A
N341        C446   1.449       .  S
C342        C343   1.380       .  A
C342        C546   1.440       .  S
C343        C344   1.373       .  A
C343        H346   1.083       .  S
C344        C345   1.378       .  A
C344        H347   1.082       .  S
C345        C516   1.438       .  S
N348        C352   1.359       .  A
N348        C349   1.362       .  A
N348        C506   1.448       .  S
C349        C350   1.380       .  A
C349        C585   1.444       .  S
C350        C351   1.373       .  A
C350        H353   1.083       .  S
C351        C352   1.379       .  A
C351        H354   1.082       .  S
C352        C490   1.446       .  S
N355        C359   1.359       .  A
N355        C356   1.359       .  A
N355        C469   1.448       .  S
C356        C357   1.381       .  A
C356        C461   1.445       .  S
C357        C358   1.375       .  A
C357        H360   1.083       .  S
C358        C359   1.379       .  A
C358        H361   1.082       .  S
C359        C486   1.443       .  S
N362        C366   1.356       .  A
N362        C363   1.357       .  A
N362        C498   1.446       .  S
C363        C364   1.381       .  A
C363        C537   1.443       .  S
C364        C365   1.376       .  A
C364        H367   1.082       .  S
C365        C366   1.378       .  A
C365        H368   1.082       .  S
C366        C578   1.440       .  S
N369        C373   1.360       .  A
N369        C370   1.359       .  A
N369        C517   1.454       .  S
C370        C371   1.378       .  A
C370        C510   1.435       .  S
C371        C372   1.368       .  A
C371        H374   1.083       .  S
C372        C373   1.378       .  A
C372        H375   1.083       .  S
C373        C534   1.431       .  S
N376        C380   1.362       .  A
N376        C377   1.358       .  A
N376        C450   1.451       .  S
C377        C378   1.379       .  A
C377        C404   1.443       .  S
C378        C379   1.374       .  A
C378        H381   1.083       .  S
C379        C380   1.379       .  A
C379        H382   1.082       .  S
C380        C514   1.442       .  S
N383        C387   1.361       .  A
N383        C384   1.357       .  A
N383        C429   1.453       .  S
C384        C385   1.379       .  A
C384        C427   1.438       .  S
C385        C386   1.371       .  A
C385        H388   1.083       .  S
C386        C387   1.379       .  A
C386        H389   1.083       .  S
C387        C465   1.437       .  S
N390        C394   1.358       .  A
N390        C391   1.361       .  A
N390        C494   1.446   1_556  S
C391        C392   1.381       .  A
C391        C539   1.446       .  S
C392        C393   1.374       .  A
C392        H395   1.083       .  S
C393        C394   1.379       .  A
C393        H396   1.083       .  S
C394        C492   1.444   1_556  S
C397        C398   1.200       .  T
C399        C400   1.206       .  T
C401        C402   1.209       .  T
C403        C404   1.208       .  T
C405        H407   1.086       .  S
C405        C406   1.352       .  D
C406        H408   1.086       .  S
C409        H411   1.086       .  S
C409        C410   1.352       .  D
C410        H412   1.086       .  S
C413        H415   1.086       .  S
C413        C414   1.349       .  D
C414        H416   1.086       .  S
C417        H419   1.086       .  S
C417        C418   1.355       .  D
C418        H420   1.086       .  S
C421        C422   1.200       .  T
C423        C424   1.202       .  T
C425        C426   1.203       .  T
C427        C428   1.205       .  T
C429        H431   1.086   1_545  S
C429        C430   1.353       .  D
C430        H432   1.086       .  S
C433        H435   1.086       .  S
C433        C434   1.352   1_545  D
C434        H436   1.086       .  S
C437        H439   1.086       .  S
C437        C438   1.353       .  D
C438        H440   1.086   1_565  S
C441        H443   1.086       .  S
C441        C442   1.350   1_545  D
C442        H444   1.087       .  S
C445        H447   1.086   1_655  S
C445        C446   1.343       .  D
C446        H448   1.086       .  S
C449        H451   1.085   1_455  S
C449        C450   1.346       .  D
C450        H452   1.087       .  S
C453        H455   1.086       .  S
C453        C454   1.345       .  D
C454        H456   1.086   1_655  S
C457        H459   1.085   1_655  S
C457        C458   1.347       .  D
C458        H460   1.087       .  S
C461        C462   1.210       .  T
C463        C464   1.208       .  T
C465        C466   1.205       .  T
C467        C468   1.203       .  T
C469        H471   1.086       .  S
C469        C470   1.348       .  D
C470        H472   1.086       .  S
C473        H475   1.086       .  S
C473        C474   1.347       .  D
C474        H476   1.087       .  S
C477        H479   1.087       .  S
C477        C478   1.344       .  D
C478        H480   1.085       .  S
C481        H483   1.086       .  S
C481        C482   1.347       .  D
C482        H484   1.086       .  S
C485        C486   1.208       .  T
C487        C488   1.205       .  T
C489        C490   1.210       .  T
C491        C492   1.208       .  T
C493        H495   1.086       .  S
C493        C494   1.347   1_556  D
C494        H496   1.086       .  S
C497        H499   1.086       .  S
C497        C498   1.346       .  D
C498        H500   1.086   1_554  S
C501        H503   1.086       .  S
C501        C502   1.350   1_554  D
C502        H504   1.086       .  S
C505        H507   1.086       .  S
C505        C506   1.348       .  D
C506        H508   1.086   1_556  S
C509        C510   1.204       .  T
C511        C512   1.208       .  T
C513        C514   1.208       .  T
C515        C516   1.205       .  T
C517        H519   1.086       .  S
C517        C518   1.351       .  D
C518        H520   1.086       .  S
C521        H523   1.086       .  S
C521        C522   1.352       .  D
C522        H524   1.085       .  S
C525        H527   1.086       .  S
C525        C526   1.350       .  D
C526        H528   1.086       .  S
C529        H531   1.086       .  S
C529        C530   1.357       .  D
C530        H532   1.086       .  S
C533        C534   1.203       .  T
C535        C536   1.206       .  T
C537        C538   1.208       .  T
C539        C540   1.211       .  T
C541        C542   1.204       .  T
C543        C544   1.205       .  T
C545        C546   1.207   1_455  T
C547        C548   1.211       .  T
C549        C550   1.205       .  T
C551        C552   1.206       .  T
C553        C554   1.202       .  T
C555        C556   1.202       .  T
C557        C558   1.207       .  T
C559        C560   1.209       .  T
C561        C562   1.204       .  T
C563        C564   1.202       .  T
C565        C566   1.206       .  T
C567        C568   1.206       .  T
C569        C570   1.211       .  T
C571        C572   1.212       .  T
C573        C574   1.210       .  T
C575        C576   1.208       .  T
C577        C578   1.205       .  T
C579        C580   1.208       .  T
C581        C582   1.203       .  T
C583        C584   1.206       .  T
C585        C586   1.209       .  T
C587        C588   1.209       .  T
