geometry optimzed in LAMMPS
_audit_creation_date              2020-11-30 
_audit_creation_method            'lammps2cif' 
_symmetry_space_group_name_H-M    'P1' 
_symmetry_Int_Tables_number       1 
_symmetry_cell_setting            triclinic 
loop_ 
_symmetry_equiv_pos_as_xyz 
  x,y,z 
_cell_length_a                    32.74817317985147 
_cell_length_b                    32.735655069894435 
_cell_length_c                    47.21131189702201 
_cell_angle_alpha                 90.18864015713405 
_cell_angle_beta                  90.3864003805338 
_cell_angle_gamma                 88.94918930426577 
loop_ 
_atom_site_label 
_atom_site_type_symbol 
_atom_site_fract_x 
_atom_site_fract_y 
_atom_site_fract_z 
_atom_site_charge 
O1          O  0.46392306  0.04194566  0.47188858    -0.73100
O2          O  0.46532665  0.45820902  0.52833703    -0.73130
O3          O  0.46550224  0.04084012  0.52930316    -0.73180
O4          O  0.46386256  0.45941846  0.47077172    -0.73230
O5          O  0.03206490  0.45804662  0.47022121    -0.73170
O6          O  0.03370748  0.03949285  0.52870899    -0.73140
O7          O  0.03353138  0.45682190  0.52784119    -0.73120
O8          O  0.03213539  0.04061937  0.47127733    -0.73180
Ni9        Ni  0.46221679  0.00011421  0.50010426     1.25410
Ni10       Ni  0.03531305  0.49866218  0.49950230     1.25360
C11         C  0.49776767  0.05469895  0.46221894     0.89080
C12         C  0.99962392  0.44421801  0.53756284     0.89010
C13         C  0.99989427  0.05333110  0.53861701     0.89040
C14         C  0.49768400  0.44589932  0.46066026     0.89210
C15         C  0.99964407  0.50014937  0.75021530    -0.01160
C16         C  0.50328356  0.50056657  0.25007308    -0.01160
C17         C  0.48868845  0.31241870  0.36260677     0.04460
C18         C  0.49054248  0.33282038  0.38873747    -0.11690
C19         C  0.49439606  0.37528931  0.38957146     0.01960
C20         C  0.49679445  0.39720488  0.36428173    -0.10220
C21         C  0.49478466  0.37703357  0.33801483     0.04450
C22         C  0.49036049  0.33451353  0.33722943    -0.09640
H23         H  0.48926990  0.31567761  0.40832253     0.10040
H24         H  0.50020059  0.43009134  0.36498720     0.07570
H25         H  0.48945141  0.31865372  0.31704508     0.07420
O26         O  0.45740088  0.03054317  0.02916758    -0.73100
O27         O  0.04105121  0.03264228  0.97271459    -0.73130
O28         O  0.45842604  0.03224012  0.97177725    -0.73180
O29         O  0.04001309  0.03119219  0.03026482    -0.73230
O30         O  0.04166414  0.46296367  0.02932523    -0.73170
O31         O  0.46002919  0.46400830  0.97070073    -0.73140
O32         O  0.04264872  0.46441842  0.97179613    -0.73120
O33         O  0.45903906  0.46231419  0.02812181    -0.73180
Ni34       Ni  0.49918271  0.03410581  0.00102120     1.25410
Ni35       Ni  0.50093008  0.46098017  0.99994857     1.25360
C36         C  0.44475207  0.49607577  0.03795217     0.89080
C37         C  0.05517926  0.99880579  0.96282771     0.89010
C38         C  0.44609380  0.99834280  0.96159067     0.89040
C39         C  0.05384730  0.99693339  0.03954749     0.89210
C40         C  0.31288274  0.50537486  0.13647687     0.04460
C41         C  0.33709567  0.50854053  0.16106183    -0.11690
C42         C  0.37996635  0.50641985  0.15914633     0.01960
C43         C  0.39766166  0.50019566  0.13230466    -0.10220
C44         C  0.37364843  0.49833811  0.10784057     0.04450
C45         C  0.33118263  0.50072832  0.10988507    -0.09640
H46         H  0.32252977  0.51326892  0.18136851     0.10040
H47         H  0.43049495  0.49701194  0.13019813     0.07570
H48         H  0.31245400  0.49906612  0.09089502     0.07420
C49         C  0.48878862  0.18802015  0.36420022     0.04460
C50         C  0.49056130  0.16886306  0.39073345    -0.11690
C51         C  0.49444486  0.12628468  0.39233559     0.01960
C52         C  0.49691180  0.10304247  0.36751562    -0.10220
C53         C  0.49495156  0.12198641  0.34095275     0.04450
C54         C  0.49053809  0.16458126  0.33930680    -0.09640
H55         H  0.48920299  0.18699257  0.40998316     0.10040
H56         H  0.50023556  0.07006553  0.36881729     0.07570
H57         H  0.48955098  0.17940781  0.31880453     0.07420
C58         C  0.18864052  0.00355134  0.13723798     0.04460
C59         C  0.16660538  0.00132903  0.16249237    -0.11690
C60         C  0.12420614  0.99649557  0.16161359     0.01960
C61         C  0.10395275  0.99462125  0.13536255    -0.10220
C62         C  0.12578234  0.99768486  0.11012482     0.04450
C63         C  0.16823803  0.00195006  0.11103727    -0.09640
H64         H  0.18239709  0.00265291  0.18272714     0.10040
H65         H  0.07104692  0.99145772  0.13462988     0.07570
H66         H  0.18531578  0.00388975  0.09150097     0.07420
C67         C  0.31218575  0.00135725  0.86302243     0.04380
C68         C  0.33526817  0.00369450  0.83810416    -0.11690
C69         C  0.37805532  0.00600728  0.83972907     0.01960
C70         C  0.39735617  0.00519007  0.86634128    -0.10220
C71         C  0.37451916  0.00201697  0.89109213     0.04450
C72         C  0.33190966  0.00032387  0.88948651    -0.09640
H73         H  0.32007159  0.00426609  0.81763720     0.10040
H74         H  0.43039605  0.00629197  0.86774718     0.07570
H75         H  0.31417559  0.99818753  0.90872756     0.07420
C76         C  0.99966530  0.31218057  0.63664518     0.04460
C77         C  0.00018818  0.33114408  0.61003833    -0.11690
C78         C  0.99854800  0.37380914  0.60816778     0.01960
C79         C  0.99596855  0.39743119  0.63283490    -0.10220
C80         C  0.99566545  0.37882101  0.65956660     0.04450
C81         C  0.99790283  0.33600718  0.66141415    -0.09640
H82         H  0.00180081  0.31278411  0.59090135     0.10040
H83         H  0.99478068  0.43048363  0.63126554     0.07570
H84         H  0.99760079  0.32135923  0.68197064     0.07420
C85         C  0.00159767  0.18738432  0.63698207     0.04460
C86         C  0.00108439  0.16782843  0.61047823    -0.11690
C87         C  0.00268621  0.12511508  0.60889595     0.01960
C88         C  0.00519884  0.10206736  0.63371005    -0.10220
C89         C  0.00549309  0.12125716  0.66031212     0.04450
C90         C  0.00330218  0.16409880  0.66190934    -0.09640
H91         H  0.99946935  0.18575385  0.59121360     0.10040
H92         H  0.00628334  0.06897719  0.63235293     0.07570
H93         H  0.00355040  0.17917200  0.68238909     0.07420
C94         C  0.18750890  0.99847948  0.86404572     0.04460
C95         C  0.16363760  0.99630344  0.83930160    -0.11690
C96         C  0.12095406  0.49388926  0.84114056     0.01960
C97         C  0.10244512  0.49435818  0.86785660    -0.10220
C98         C  0.12603387  0.49736825  0.89254115     0.04450
C99         C  0.16864699  0.99921329  0.89067516    -0.09640
H100        H  0.17817893  0.99597550  0.81873659     0.10040
H101        H  0.06945560  0.49314041  0.86939872     0.07570
H102        H  0.18701795  0.00120479  0.90980832     0.07420
C103        C  0.00043394  0.26823142  0.63831898    -0.11950
C104        C  0.00082273  0.23136581  0.63840567    -0.13500
C105        C  0.26822582  0.00032594  0.86174296    -0.11950
C106        C  0.23139656  0.99962914  0.86221288    -0.13500
C107        C  0.26910619  0.50668982  0.13823537    -0.11950
C108        C  0.23235766  0.00618758  0.13819580    -0.13500
C109        C  0.39555980  0.00022257  0.91792097    -0.11950
C110        C  0.41701196  0.99898999  0.93875292    -0.13500
C111        C  0.39360299  0.49570014  0.08079897    -0.11950
C112        C  0.41505384  0.49529898  0.06014052    -0.13500
C113        C  0.10571632  0.99869747  0.91952798    -0.11950
C114        C  0.08448534  0.99928080  0.94032758    -0.13500
C115        C  0.08260962  0.99665989  0.06262865    -0.11950
C116        C  0.10401674  0.99690540  0.08351812    -0.13500
C117        C  0.48679510  0.23183395  0.36259589    -0.11950
C118        C  0.48676519  0.26860909  0.36202963    -0.13500
C119        C  0.46883577  0.40309267  0.29104841    -0.12020
C120        C  0.49945810  0.40098399  0.31186661     0.10130
C121        C  0.03455318  0.42378190  0.30834871    -0.12020
C122        C  0.03672535  0.45197492  0.28649246    -0.12020
C123        C  0.50272705  0.46092949  0.26872659     0.10130
C124        C  0.47112614  0.43185859  0.26911302    -0.12020
H125        H  0.44267534  0.38341540  0.29220844     0.14120
H126        H  0.06011435  0.42027027  0.32288702     0.14120
H127        H  0.06554076  0.46656820  0.28370615     0.14120
H128        H  0.44827784  0.43004965  0.25276704     0.14120
C129        C  0.44524482  0.02905571  0.18103290    -0.12020
C130        C  0.40718547  0.51099902  0.18438341     0.10130
C131        C  0.39690547  0.49687028  0.21149159    -0.12020
C132        C  0.42615972  0.49645595  0.23346483    -0.12020
C133        C  0.46736991  0.50614460  0.22810876     0.10130
C134        C  0.47447208  0.02694914  0.20237027    -0.12020
H135        H  0.45307485  0.04419955  0.16150245     0.14120
H136        H  0.36680448  0.48530619  0.21564583     0.14120
H137        H  0.41642305  0.48818343  0.25448095     0.14120
H138        H  0.50313952  0.04131237  0.19802449     0.14120
C139        C  0.03676643  0.04500871  0.28921002    -0.12020
C140        C  0.50321677  0.03799155  0.27082190     0.10130
C141        C  0.46876777  0.06462256  0.27397327    -0.12020
C142        C  0.46680863  0.09354638  0.29585896    -0.12020
C143        C  0.49897825  0.09668601  0.31528142     0.10130
C144        C  0.03434889  0.07310084  0.31132814    -0.12020
H145        H  0.06568564  0.02949594  0.28660889     0.14120
H146        H  0.44228525  0.06291040  0.26039771     0.14120
H147        H  0.43934637  0.11210005  0.29843248     0.14120
H148        H  0.06011613  0.07614042  0.32565501     0.14120
C149        C  0.04705682  0.96190898  0.21443972    -0.12020
C150        C  0.04254588  0.99668957  0.23203320     0.10130
C151        C  0.06982872  0.02921571  0.22811711    -0.12020
C152        C  0.09872105  0.02769184  0.20646158    -0.12020
C153        C  0.10036699  0.99432240  0.18786194     0.10130
C154        C  0.07526336  0.96094935  0.19250092    -0.12020
H155        H  0.02633556  0.93666517  0.21626839     0.14120
H156        H  0.06670208  0.05758683  0.23966377     0.14120
H157        H  0.11755851  0.05399573  0.20282070     0.14120
H158        H  0.07613711  0.93494703  0.17824815     0.14120
C159        C  0.46172133  0.03684170  0.79018704    -0.12020
C160        C  0.46225289  0.00469749  0.77012321     0.10130
C161        C  0.43138281  0.47509195  0.77207213    -0.12020
C162        C  0.40213194  0.47719287  0.79354292    -0.12020
C163        C  0.40349430  0.00815085  0.81404323     0.10130
C164        C  0.43296141  0.03842354  0.81182683    -0.12020
H165        H  0.48504664  0.05985967  0.78982039     0.14120
H166        H  0.43073348  0.44876410  0.75827576     0.14120
H167        H  0.38005319  0.45309811  0.79522289     0.14120
H168        H  0.43465195  0.06253744  0.82753850     0.14120
C169        C  0.03691278  0.46356676  0.79073366    -0.12020
C170        C  0.03668203  0.49565259  0.77076544     0.10130
C171        C  0.06751264  0.52526379  0.77331003    -0.12020
C172        C  0.09656375  0.52310947  0.79513131    -0.12020
C173        C  0.09499245  0.49216586  0.81546574     0.10130
C174        C  0.06544024  0.46199381  0.81279115    -0.12020
H175        H  0.01358818  0.44055649  0.78991150     0.14120
H176        H  0.06836244  0.55161151  0.75967383     0.14120
H177        H  0.11875198  0.54710240  0.79715097     0.14120
H178        H  0.06364982  0.43785542  0.82834948     0.14120
C179        C  0.52442705  0.40254885  0.70586742    -0.12020
C180        C  0.99358781  0.40479960  0.68520294     0.10130
C181        C  0.96296638  0.43500602  0.68752406    -0.12020
C182        C  0.96397461  0.46350372  0.70951291    -0.12020
C183        C  0.99591230  0.46306689  0.72981072     0.10130
C184        C  0.52597688  0.43156809  0.72768503    -0.12020
H185        H  0.54873371  0.37980469  0.70414270     0.14120
H186        H  0.93888998  0.43732605  0.67173241     0.14120
H187        H  0.94060928  0.48733553  0.71002741     0.14120
H188        H  0.55215373  0.43016778  0.74167421     0.14120
C189        C  0.03622025  0.03682590  0.71045773    -0.12020
C190        C  0.00382273  0.03724572  0.73009908     0.10130
C191        C  0.47391221  0.06885224  0.72762999    -0.12020
C192        C  0.47603245  0.09798115  0.70607435    -0.12020
C193        C  0.00732076  0.09572353  0.68602982     0.10130
C194        C  0.03783967  0.06547123  0.68875460    -0.12020
H195        H  0.05950304  0.01292313  0.71125525     0.14120
H196        H  0.44741833  0.07023766  0.74108782     0.14120
H197        H  0.45177835  0.12073685  0.70397790     0.14120
H198        H  0.06221818  0.06312781  0.67340264     0.14120
C199        C  0.49698347  0.41769179  0.43731186    -0.11950
C200        C  0.49600294  0.39682392  0.41621434    -0.13500
C201        C  0.99952659  0.39407137  0.58115099    -0.11950
C202        C  0.99996594  0.41506937  0.56021362    -0.13500
C203        C  0.49600150  0.10569894  0.41919369    -0.11950
C204        C  0.49706454  0.08425008  0.43988392    -0.13500
C205        C  0.00151936  0.10413241  0.58206300    -0.11950
C206        C  0.00062291  0.08254256  0.56133363    -0.13500
O207        O  0.46391610  0.54194586  0.47188837    -0.73100
O208        O  0.46533465  0.95820873  0.52833714    -0.73130
O209        O  0.46549430  0.54084039  0.52930300    -0.73180
O210        O  0.46386959  0.95941831  0.47077189    -0.73230
O211        O  0.03207191  0.95804651  0.47022080    -0.73170
O212        O  0.03369956  0.53949303  0.52870936    -0.73140
O213        O  0.03353936  0.95682164  0.52784078    -0.73120
O214        O  0.03212845  0.54061945  0.47127770    -0.73180
Ni215      Ni  0.46220929  0.50011445  0.50010407     1.25410
Ni216      Ni  0.03532053  0.99866202  0.49950190     1.25360
C217        C  0.49776092  0.55469908  0.46221903     0.89080
C218        C  0.99963207  0.94421766  0.53756266     0.89010
C219        C  0.99988620  0.55333130  0.53861713     0.89040
C220        C  0.49769084  0.94589922  0.46066012     0.89210
C221        C  0.99965153  0.00014981  0.75021482    -0.01160
C222        C  0.50328337  0.00056643  0.25007254    -0.01160
C223        C  0.48868928  0.81241908  0.36260678     0.04460
C224        C  0.49054522  0.83282067  0.38873742    -0.11690
C225        C  0.49439941  0.87528953  0.38957131     0.01960
C226        C  0.49679647  0.89720511  0.36428151    -0.10220
C227        C  0.49478482  0.87703388  0.33801466     0.04450
C228        C  0.49036003  0.83451391  0.33722938    -0.09640
H229        H  0.48927365  0.81567790  0.40832253     0.10040
H230        H  0.50020316  0.93009151  0.36498690     0.07570
H231        H  0.48944959  0.81865413  0.31704505     0.07420
O232        O  0.45739781  0.53054303  0.02916905    -0.73100
O233        O  0.04104613  0.53264325  0.97271478    -0.73130
O234        O  0.45842094  0.53224083  0.97177870    -0.73180
O235        O  0.04001005  0.53119231  0.03026501    -0.73230
O236        O  0.04166697  0.96296353  0.02932550    -0.73170
O237        O  0.46003407  0.96400756  0.97069976    -0.73140
O238        O  0.04265361  0.96441746  0.97179639    -0.73120
O239        O  0.45904191  0.96231433  0.02812082    -0.73180
Ni240      Ni  0.49917862  0.53410625  0.00102205     1.25410
Ni241      Ni  0.50093394  0.96097973  0.99994822     1.25360
C242        C  0.44475468  0.99607609  0.03795075     0.89080
C243        C  0.05517397  0.49880693  0.96282751     0.89010
C244        C  0.44608849  0.49834361  0.96159204     0.89040
C245        C  0.05384476  0.49693342  0.03954724     0.89210
C246        C  0.31288412  0.00537503  0.13647519     0.04460
C247        C  0.33709717  0.00854049  0.16106005    -0.11690
C248        C  0.37996780  0.00641980  0.15914450     0.01960
C249        C  0.39766302  0.00019595  0.13230274    -0.10220
C250        C  0.37364972  0.99833875  0.10783865     0.04450
C251        C  0.33118386  0.00072887  0.10988327    -0.09640
H252        H  0.32253131  0.01326870  0.18136676     0.10040
H253        H  0.43049628  0.99701215  0.13019614     0.07570
H254        H  0.31245511  0.99906684  0.09089327     0.07420
C255        C  0.48878824  0.68802061  0.36420037     0.04460
C256        C  0.49055899  0.66886337  0.39073358    -0.11690
C257        C  0.49444201  0.62628494  0.39233570     0.01960
C258        C  0.49691036  0.60304284  0.36751574    -0.10220
C259        C  0.49495191  0.62198697  0.34095291     0.04450
C260        C  0.49053904  0.66458185  0.33930695    -0.09640
H261        H  0.48919957  0.68699279  0.40998331     0.10040
H262        H  0.50023358  0.57006586  0.36881738     0.07570
H263        H  0.48955319  0.67940849  0.31880470     0.07420
C264        C  0.18863910  0.50355136  0.13723757     0.04460
C265        C  0.16660366  0.50132909  0.16249179    -0.11690
C266        C  0.12420450  0.49649553  0.16161280     0.01960
C267        C  0.10395137  0.49462101  0.13536167    -0.10220
C268        C  0.12578119  0.49768461  0.11012401     0.04450
C269        C  0.16823694  0.50194993  0.11103670    -0.09640
H270        H  0.18239512  0.50265311  0.18272665     0.10040
H271        H  0.07104555  0.49145742  0.13462887     0.07570
H272        H  0.18531493  0.50388962  0.09150050     0.07420
C273        C  0.31217971  0.50135725  0.86302381     0.04380
C274        C  0.33526231  0.50369423  0.83810565    -0.11690
C275        C  0.37804940  0.50600721  0.83973067     0.01960
C276        C  0.39735009  0.50519052  0.86634295    -0.10220
C277        C  0.37451294  0.50201765  0.89109379     0.04450
C278        C  0.33190341  0.50032433  0.88948801    -0.09640
H279        H  0.32006588  0.50426546  0.81763863     0.10040
H280        H  0.43038995  0.50629258  0.86774892     0.07570
H281        H  0.31416917  0.49818816  0.90872899     0.07420
C282        C  0.99966935  0.81218030  0.63664516     0.04460
C283        C  0.00019344  0.83114355  0.61003823    -0.11690
C284        C  0.99855565  0.87380866  0.60816751     0.01960
C285        C  0.99597738  0.89743101  0.63283453    -0.10220
C286        C  0.99567304  0.87882109  0.65956629     0.04450
C287        C  0.99790808  0.83600721  0.66141403    -0.09640
H288        H  0.00180498  0.81278334  0.59090132     0.10040
H289        H  0.99479108  0.93048347  0.63126506     0.07570
H290        H  0.99760491  0.82135950  0.68197059     0.07420
C291        C  0.00159350  0.68738404  0.63698248     0.04460
C292        C  0.00107906  0.66782821  0.61047863    -0.11690
C293        C  0.00267852  0.62511481  0.60889631     0.01960
C294        C  0.00518993  0.60206695  0.63371039    -0.10220
C295        C  0.00548538  0.62125669  0.66031248     0.04450
C296        C  0.00329679  0.66409841  0.66190974    -0.09640
H297        H  0.99946515  0.68575372  0.59121401     0.10040
H298        H  0.00627288  0.56897677  0.63235326     0.07570
H299        H  0.00354613  0.67917155  0.68238951     0.07420
C300        C  0.18750280  0.49847957  0.86404545     0.04460
C301        C  0.16363167  0.49630319  0.83930122    -0.11690
C302        C  0.12096006  0.99388927  0.84114103     0.01960
C303        C  0.10245127  0.99435754  0.86785713    -0.10220
C304        C  0.12604014  0.99736728  0.89254168     0.04450
C305        C  0.16864069  0.49921399  0.89067478    -0.09640
H306        H  0.17817315  0.49597479  0.81873627     0.10040
H307        H  0.06946177  0.99313957  0.86939931     0.07570
H308        H  0.18701150  0.50120573  0.90980800     0.07420
C309        C  0.00043512  0.76823115  0.63831916    -0.11950
C310        C  0.00082142  0.73136555  0.63840605    -0.13500
C311        C  0.26821979  0.50032578  0.86174391    -0.11950
C312        C  0.23139051  0.49962901  0.86221303    -0.13500
C313        C  0.26910762  0.00668977  0.13823416    -0.11950
C314        C  0.23235623  0.50618768  0.13819598    -0.13500
C315        C  0.39555356  0.50022354  0.91792273    -0.11950
C316        C  0.41700602  0.49899100  0.93875459    -0.13500
C317        C  0.39360438  0.99570098  0.08079699    -0.11950
C318        C  0.41505569  0.99529972  0.06013873    -0.13500
C319        C  0.10571005  0.49869888  0.91952737    -0.11950
C320        C  0.08447940  0.49928228  0.94032708    -0.13500
C321        C  0.08260797  0.49665973  0.06262796    -0.11950
C322        C  0.10401562  0.49690516  0.08351722    -0.13500
C323        C  0.48679511  0.73183440  0.36259606    -0.11950
C324        C  0.48676552  0.76860952  0.36202972    -0.13500
C325        C  0.46883452  0.90309354  0.29104869    -0.12020
C326        C  0.49945764  0.90098418  0.31186633     0.10130
C327        C  0.03455309  0.92378119  0.30834775    -0.12020
C328        C  0.03672512  0.95197407  0.28649143    -0.12020
C329        C  0.50272646  0.96092932  0.26872603     0.10130
C330        C  0.47112478  0.93185927  0.26911316    -0.12020
H331        H  0.44267365  0.88341694  0.29220927     0.14120
H332        H  0.06011473  0.92026902  0.32288560     0.14120
H333        H  0.06554075  0.96656679  0.28370466     0.14120
H334        H  0.44827574  0.93005080  0.25276767     0.14120
C335        C  0.44524312  0.52905684  0.18103446    -0.12020
C336        C  0.40718682  0.01099861  0.18438170     0.10130
C337        C  0.39690606  0.99687073  0.21148998    -0.12020
C338        C  0.42615981  0.99645665  0.23346354    -0.12020
C339        C  0.46737025  0.00614458  0.22810779     0.10130
C340        C  0.47447088  0.52695011  0.20237150    -0.12020
H341        H  0.45307250  0.54420118  0.16150407     0.14120
H342        H  0.36680482  0.98530722  0.21564413     0.14120
H343        H  0.41642252  0.98818498  0.25447968     0.14120
H344        H  0.50313806  0.54131383  0.19802567     0.14120
C345        C  0.03676718  0.54500967  0.28921000    -0.12020
C346        C  0.50321721  0.53799189  0.27082229     0.10130
C347        C  0.46876802  0.56462261  0.27397386    -0.12020
C348        C  0.46680898  0.59354657  0.29585942    -0.12020
C349        C  0.49897886  0.59668666  0.31528159     0.10130
C350        C  0.03434969  0.57310191  0.31132810    -0.12020
H351        H  0.06568656  0.52949732  0.28660860     0.14120
H352        H  0.44228522  0.56291009  0.26039860     0.14120
H353        H  0.43934656  0.61209995  0.29843311     0.14120
H354        H  0.06011709  0.57614188  0.32565478     0.14120
C355        C  0.04705584  0.46190917  0.21443956    -0.12020
C356        C  0.04254559  0.49668965  0.23203325     0.10130
C357        C  0.06982841  0.52921571  0.22811686    -0.12020
C358        C  0.09872009  0.52769186  0.20646093    -0.12020
C359        C  0.10036531  0.49432258  0.18786114     0.10130
C360        C  0.07526165  0.46094962  0.19250031    -0.12020
H361        H  0.02633456  0.43666542  0.21626846     0.14120
H362        H  0.06670224  0.55758678  0.23966362     0.14120
H363        H  0.11755766  0.55399564  0.20281994     0.14120
H364        H  0.07613495  0.43494738  0.17824747     0.14120
C365        C  0.46171468  0.53684140  0.79018787    -0.12020
C366        C  0.46224579  0.50469717  0.77012405     0.10130
C367        C  0.43138984  0.97509229  0.77207094    -0.12020
C368        C  0.40213842  0.97719324  0.79354137    -0.12020
C369        C  0.40348832  0.50815045  0.81404478     0.10130
C370        C  0.43295534  0.53842315  0.81182805    -0.12020
H371        H  0.48503994  0.55985939  0.78982093     0.14120
H372        H  0.43074085  0.94876442  0.75827458     0.14120
H373        H  0.38005969  0.95309844  0.79522114     0.14120
H374        H  0.43464619  0.56253710  0.82753967     0.14120
C375        C  0.03691950  0.96356705  0.79073342    -0.12020
C376        C  0.03668911  0.99565295  0.77076525     0.10130
C377        C  0.06751960  0.02526422  0.77331022    -0.12020
C378        C  0.09657021  0.02310990  0.79513180    -0.12020
C379        C  0.09499851  0.99216624  0.81546618     0.10130
C380        C  0.06544643  0.96199413  0.81279124    -0.12020
H381        H  0.01359498  0.94055672  0.78991096     0.14120
H382        H  0.06836966  0.05161197  0.75967406     0.14120
H383        H  0.11875841  0.04710282  0.79715170     0.14120
H384        H  0.06365579  0.93785564  0.82834948     0.14120
C385        C  0.52443471  0.90254917  0.70586702    -0.12020
C386        C  0.99359566  0.90479999  0.68520246     0.10130
C387        C  0.96297446  0.93500667  0.68752332    -0.12020
C388        C  0.96398267  0.96350446  0.70951209    -0.12020
C389        C  0.99592010  0.96306747  0.72981009     0.10130
C390        C  0.52598453  0.93156853  0.72768457    -0.12020
H391        H  0.54874117  0.87980478  0.70414246     0.14120
H392        H  0.93889822  0.93732675  0.67173156     0.14120
H393        H  0.94061744  0.98733638  0.71002644     0.14120
H394        H  0.55216121  0.93016812  0.74167392     0.14120
C395        C  0.03621222  0.53682507  0.71045782    -0.12020
C396        C  0.00381500  0.53724514  0.73009941     0.10130
C397        C  0.47390456  0.56885180  0.72763050    -0.12020
C398        C  0.47602472  0.59798072  0.70607483    -0.12020
C399        C  0.00731288  0.59572293  0.68603011     0.10130
C400        C  0.03783155  0.56547037  0.68875468    -0.12020
H401        H  0.05949488  0.51292218  0.71125521     0.14120
H402        H  0.44741091  0.57023737  0.74108854     0.14120
H403        H  0.45177077  0.62073662  0.70397852     0.14120
H404        H  0.06220985  0.56312678  0.67340258     0.14120
C405        C  0.49698979  0.91769178  0.43731170    -0.11950
C406        C  0.49600816  0.89682403  0.41621416    -0.13500
C407        C  0.99953486  0.89407069  0.58115065    -0.11950
C408        C  0.99997439  0.91506881  0.56021334    -0.13500
C409        C  0.49599661  0.60569907  0.41919378    -0.11950
C410        C  0.49705839  0.58425018  0.43988400    -0.13500
C411        C  0.00151115  0.60413230  0.58206331    -0.11950
C412        C  0.00061457  0.58254262  0.56133385    -0.13500
O413        O  0.96392304  0.04194566  0.47188859    -0.73100
O414        O  0.96532664  0.45820902  0.52833702    -0.73130
O415        O  0.96550222  0.04084012  0.52930317    -0.73180
O416        O  0.96386254  0.45941845  0.47077171    -0.73230
O417        O  0.53206491  0.45804662  0.47022122    -0.73170
O418        O  0.53370750  0.03949285  0.52870899    -0.73140
O419        O  0.53353139  0.45682190  0.52784120    -0.73120
O420        O  0.53213541  0.04061937  0.47127732    -0.73180
Ni421      Ni  0.96221677  0.00011421  0.50010427     1.25410
Ni422      Ni  0.53531307  0.49866218  0.49950231     1.25360
C423        C  0.99776765  0.05469895  0.46221895     0.89080
C424        C  0.49962394  0.44421801  0.53756285     0.89010
C425        C  0.49989428  0.05333111  0.53861700     0.89040
C426        C  0.99768398  0.44589932  0.46066025     0.89210
C427        C  0.49964407  0.50014937  0.75021532    -0.01160
C428        C  0.00328356  0.50056657  0.25007307    -0.01160
C429        C  0.98868845  0.31241870  0.36260676     0.04460
C430        C  0.99054247  0.33282038  0.38873745    -0.11690
C431        C  0.99439605  0.37528931  0.38957145     0.01960
C432        C  0.99679444  0.39720489  0.36428171    -0.10220
C433        C  0.99478466  0.37703358  0.33801481     0.04450
C434        C  0.99036049  0.33451353  0.33722942    -0.09640
H435        H  0.98926989  0.31567762  0.40832252     0.10040
H436        H  0.00020058  0.43009135  0.36498719     0.07570
H437        H  0.98945141  0.31865373  0.31704507     0.07420
O438        O  0.95740088  0.03054320  0.02916760    -0.73100
O439        O  0.54105120  0.03264225  0.97271457    -0.73130
O440        O  0.95842605  0.03224014  0.97177726    -0.73180
O441        O  0.54001309  0.03119216  0.03026481    -0.73230
O442        O  0.54166414  0.46296368  0.02932524    -0.73170
O443        O  0.96002919  0.46400829  0.97070072    -0.73140
O444        O  0.54264872  0.46441844  0.97179614    -0.73120
O445        O  0.95903906  0.46231419  0.02812180    -0.73180
Ni446      Ni  0.99918271  0.03410584  0.00102121     1.25410
Ni447      Ni  0.00093008  0.46098016  0.99994856     1.25360
C448        C  0.94475207  0.49607576  0.03795215     0.89080
C449        C  0.55517926  0.99880576  0.96282770     0.89010
C450        C  0.94609381  0.99834282  0.96159068     0.89040
C451        C  0.55384730  0.99693336  0.03954748     0.89210
C452        C  0.81288273  0.50537485  0.13647686     0.04460
C453        C  0.83709567  0.50854052  0.16106182    -0.11690
C454        C  0.87996635  0.50641984  0.15914632     0.01960
C455        C  0.89766166  0.50019566  0.13230464    -0.10220
C456        C  0.87364843  0.49833810  0.10784056     0.04450
C457        C  0.83118262  0.50072832  0.10988506    -0.09640
H458        H  0.82252977  0.51326891  0.18136849     0.10040
H459        H  0.93049494  0.49701194  0.13019811     0.07570
H460        H  0.81245399  0.49906612  0.09089501     0.07420
C461        C  0.98878862  0.18802016  0.36420022     0.04460
C462        C  0.99056129  0.16886307  0.39073345    -0.11690
C463        C  0.99444485  0.12628469  0.39233560     0.01960
C464        C  0.99691180  0.10304248  0.36751564    -0.10220
C465        C  0.99495156  0.12198641  0.34095277     0.04450
C466        C  0.99053809  0.16458126  0.33930681    -0.09640
H467        H  0.98920298  0.18699259  0.40998317     0.10040
H468        H  0.00023555  0.07006554  0.36881731     0.07570
H469        H  0.98955099  0.17940780  0.31880453     0.07420
C470        C  0.68864052  0.00355137  0.13723796     0.04460
C471        C  0.66660538  0.00132905  0.16249235    -0.11690
C472        C  0.62420615  0.99649558  0.16161357     0.01960
C473        C  0.60395276  0.99462124  0.13536253    -0.10220
C474        C  0.62578235  0.99768485  0.11012480     0.04450
C475        C  0.66823803  0.00195006  0.11103725    -0.09640
H476        H  0.68239708  0.00265295  0.18272712     0.10040
H477        H  0.57104692  0.99145770  0.13462986     0.07570
H478        H  0.68531578  0.00388976  0.09150095     0.07420
C479        C  0.81218575  0.00135718  0.86302245     0.04380
C480        C  0.83526817  0.00369442  0.83810417    -0.11690
C481        C  0.87805533  0.00600722  0.83972908     0.01960
C482        C  0.89735617  0.00519004  0.86634129    -0.10220
C483        C  0.87451916  0.00201694  0.89109215     0.04450
C484        C  0.83190966  0.00032382  0.88948652    -0.09640
H485        H  0.82007159  0.00426599  0.81763722     0.10040
H486        H  0.93039605  0.00629196  0.86774720     0.07570
H487        H  0.81417559  0.99818748  0.90872757     0.07420
C488        C  0.49966533  0.31218058  0.63664519     0.04460
C489        C  0.50018821  0.33114409  0.61003834    -0.11690
C490        C  0.49854802  0.37380915  0.60816779     0.01960
C491        C  0.49596857  0.39743119  0.63283491    -0.10220
C492        C  0.49566547  0.37882101  0.65956662     0.04450
C493        C  0.49790286  0.33600718  0.66141416    -0.09640
H494        H  0.50180084  0.31278412  0.59090136     0.10040
H495        H  0.49478069  0.43048364  0.63126555     0.07570
H496        H  0.49760083  0.32135923  0.68197065     0.07420
C497        C  0.50159771  0.18738432  0.63698206     0.04460
C498        C  0.50108443  0.16782844  0.61047822    -0.11690
C499        C  0.50268625  0.12511508  0.60889594     0.01960
C500        C  0.50519888  0.10206736  0.63371004    -0.10220
C501        C  0.50549314  0.12125716  0.66031211     0.04450
C502        C  0.50330224  0.16409880  0.66190933    -0.09640
H503        H  0.49946938  0.18575386  0.59121359     0.10040
H504        H  0.50628338  0.06897720  0.63235292     0.07570
H505        H  0.50355046  0.17917200  0.68238908     0.07420
C506        C  0.68750890  0.99847939  0.86404571     0.04460
C507        C  0.66363761  0.99630336  0.83930159    -0.11690
C508        C  0.62095406  0.49388928  0.84114057     0.01960
C509        C  0.60244512  0.49435821  0.86785661    -0.10220
C510        C  0.62603388  0.49736828  0.89254117     0.04450
C511        C  0.66864699  0.99921322  0.89067515    -0.09640
H512        H  0.67817894  0.99597541  0.81873658     0.10040
H513        H  0.56945560  0.49314043  0.86939874     0.07570
H514        H  0.68701795  0.00120471  0.90980831     0.07420
C515        C  0.50043398  0.26823142  0.63831898    -0.11950
C516        C  0.50082278  0.23136582  0.63840567    -0.13500
C517        C  0.76822582  0.00032585  0.86174297    -0.11950
C518        C  0.73139656  0.99962905  0.86221288    -0.13500
C519        C  0.76910619  0.50668982  0.13823536    -0.11950
C520        C  0.73235766  0.00618762  0.13819579    -0.13500
C521        C  0.89555980  0.00022256  0.91792099    -0.11950
C522        C  0.91701196  0.99899000  0.93875294    -0.13500
C523        C  0.89360299  0.49570014  0.08079895    -0.11950
C524        C  0.91505383  0.49529898  0.06014051    -0.13500
C525        C  0.60571631  0.99869743  0.91952796    -0.11950
C526        C  0.58448533  0.99928077  0.94032756    -0.13500
C527        C  0.58260961  0.99665985  0.06262863    -0.11950
C528        C  0.60401674  0.99690537  0.08351810    -0.13500
C529        C  0.98679510  0.23183395  0.36259589    -0.11950
C530        C  0.98676519  0.26860910  0.36202962    -0.13500
C531        C  0.96883578  0.40309266  0.29104839    -0.12020
C532        C  0.99945811  0.40098399  0.31186660     0.10130
C533        C  0.53455318  0.42378189  0.30834872    -0.12020
C534        C  0.53672535  0.45197491  0.28649247    -0.12020
C535        C  0.00272705  0.46092950  0.26872658     0.10130
C536        C  0.97112615  0.43185859  0.26911301    -0.12020
H537        H  0.94267536  0.38341539  0.29220841     0.14120
H538        H  0.56011435  0.42027025  0.32288702     0.14120
H539        H  0.56554076  0.46656818  0.28370615     0.14120
H540        H  0.94827786  0.43004964  0.25276702     0.14120
C541        C  0.94524482  0.02905574  0.18103291    -0.12020
C542        C  0.90718547  0.51099902  0.18438339     0.10130
C543        C  0.89690547  0.49687027  0.21149158    -0.12020
C544        C  0.92615972  0.49645594  0.23346482    -0.12020
C545        C  0.96736991  0.50614460  0.22810875     0.10130
C546        C  0.97447208  0.02694916  0.20237029    -0.12020
H547        H  0.95307485  0.04419958  0.16150247     0.14120
H548        H  0.86680448  0.48530617  0.21564582     0.14120
H549        H  0.91642305  0.48818341  0.25448093     0.14120
H550        H  0.00313952  0.04131238  0.19802451     0.14120
C551        C  0.53676644  0.04500874  0.28920999    -0.12020
C552        C  0.00321676  0.03799154  0.27082191     0.10130
C553        C  0.96876778  0.06462258  0.27397328    -0.12020
C554        C  0.96680865  0.09354640  0.29585897    -0.12020
C555        C  0.99897826  0.09668600  0.31528143     0.10130
C556        C  0.53434890  0.07310087  0.31132811    -0.12020
H557        H  0.56568566  0.02949599  0.28660885     0.14120
H558        H  0.94228527  0.06291044  0.26039770     0.14120
H559        H  0.93934640  0.11210008  0.29843248     0.14120
H560        H  0.56011615  0.07614047  0.32565497     0.14120
C561        C  0.54705685  0.96190898  0.21443971    -0.12020
C562        C  0.54254590  0.99668958  0.23203319     0.10130
C563        C  0.56982871  0.02921573  0.22811709    -0.12020
C564        C  0.59872104  0.02769186  0.20646155    -0.12020
C565        C  0.60036699  0.99432242  0.18786193     0.10130
C566        C  0.57526338  0.96094935  0.19250091    -0.12020
H567        H  0.52633560  0.93666516  0.21626840     0.14120
H568        H  0.56670206  0.05758686  0.23966374     0.14120
H569        H  0.61755849  0.05399576  0.20282067     0.14120
H570        H  0.57613714  0.93494703  0.17824815     0.14120
C571        C  0.96172131  0.03684169  0.79018705    -0.12020
C572        C  0.96225288  0.00469747  0.77012322     0.10130
C573        C  0.93138280  0.47509196  0.77207212    -0.12020
C574        C  0.90213193  0.47719289  0.79354290    -0.12020
C575        C  0.90349430  0.00815080  0.81404324     0.10130
C576        C  0.93296138  0.03842351  0.81182684    -0.12020
H577        H  0.98504660  0.05985967  0.78982039     0.14120
H578        H  0.93073347  0.44876412  0.75827574     0.14120
H579        H  0.88005318  0.45309814  0.79522287     0.14120
H580        H  0.93465191  0.06253742  0.82753851     0.14120
C581        C  0.53691279  0.46356676  0.79073367    -0.12020
C582        C  0.53668203  0.49565260  0.77076545     0.10130
C583        C  0.56751264  0.52526381  0.77331005    -0.12020
C584        C  0.59656374  0.52310950  0.79513132    -0.12020
C585        C  0.59499244  0.49216588  0.81546576     0.10130
C586        C  0.56544024  0.46199383  0.81279117    -0.12020
H587        H  0.51358820  0.44055649  0.78991151     0.14120
H588        H  0.56836242  0.55161153  0.75967384     0.14120
H589        H  0.61875197  0.54710243  0.79715099     0.14120
H590        H  0.56364983  0.43785544  0.82834950     0.14120
C591        C  0.02442703  0.40254885  0.70586741    -0.12020
C592        C  0.49358783  0.40479960  0.68520295     0.10130
C593        C  0.46296639  0.43500601  0.68752407    -0.12020
C594        C  0.46397462  0.46350371  0.70951292    -0.12020
C595        C  0.49591231  0.46306689  0.72981073     0.10130
C596        C  0.02597686  0.43156809  0.72768502    -0.12020
H597        H  0.04873368  0.37980468  0.70414269     0.14120
H598        H  0.43888999  0.43732603  0.67173243     0.14120
H599        H  0.44060928  0.48733551  0.71002742     0.14120
H600        H  0.05215371  0.43016777  0.74167420     0.14120
C601        C  0.53622027  0.03682588  0.71045771    -0.12020
C602        C  0.50382275  0.03724572  0.73009907     0.10130
C603        C  0.97391217  0.06885222  0.72762999    -0.12020
C604        C  0.97603239  0.09798113  0.70607436    -0.12020
C605        C  0.50732081  0.09572353  0.68602981     0.10130
C606        C  0.53783970  0.06547121  0.68875458    -0.12020
H607        H  0.55950304  0.01292310  0.71125524     0.14120
H608        H  0.94741828  0.07023762  0.74108782     0.14120
H609        H  0.95177828  0.12073682  0.70397790     0.14120
H610        H  0.56221820  0.06312777  0.67340262     0.14120
C611        C  0.99698345  0.41769179  0.43731185    -0.11950
C612        C  0.99600293  0.39682393  0.41621433    -0.13500
C613        C  0.49952660  0.39407138  0.58115100    -0.11950
C614        C  0.49996596  0.41506937  0.56021364    -0.13500
C615        C  0.99600149  0.10569895  0.41919371    -0.11950
C616        C  0.99706452  0.08425009  0.43988393    -0.13500
C617        C  0.50151938  0.10413242  0.58206299    -0.11950
C618        C  0.50062292  0.08254257  0.56133363    -0.13500
O619        O  0.96391608  0.54194585  0.47188836    -0.73100
O620        O  0.96533463  0.95820873  0.52833715    -0.73130
O621        O  0.96549428  0.54084039  0.52930299    -0.73180
O622        O  0.96386957  0.95941831  0.47077189    -0.73230
O623        O  0.53207193  0.95804651  0.47022079    -0.73170
O624        O  0.53369957  0.53949303  0.52870937    -0.73140
O625        O  0.53353938  0.95682164  0.52784078    -0.73120
O626        O  0.53212847  0.54061945  0.47127771    -0.73180
Ni627      Ni  0.96220927  0.50011444  0.50010406     1.25410
Ni628      Ni  0.53532055  0.99866202  0.49950189     1.25360
C629        C  0.99776090  0.55469907  0.46221901     0.89080
C630        C  0.49963208  0.94421766  0.53756265     0.89010
C631        C  0.49988621  0.55333130  0.53861714     0.89040
C632        C  0.99769082  0.94589922  0.46066013     0.89210
C633        C  0.49965154  0.00014981  0.75021481    -0.01160
C634        C  0.00328335  0.00056642  0.25007255    -0.01160
C635        C  0.98868924  0.81241908  0.36260679     0.04460
C636        C  0.99054518  0.83282067  0.38873743    -0.11690
C637        C  0.99439937  0.87528952  0.38957132     0.01960
C638        C  0.99679644  0.89720511  0.36428152    -0.10220
C639        C  0.99478478  0.87703387  0.33801466     0.04450
C640        C  0.99035999  0.83451391  0.33722939    -0.09640
H641        H  0.98927361  0.81567789  0.40832253     0.10040
H642        H  0.00020312  0.93009151  0.36498691     0.07570
H643        H  0.98944955  0.81865413  0.31704506     0.07420
O644        O  0.95739781  0.53054302  0.02916904    -0.73100
O645        O  0.54104612  0.53264326  0.97271479    -0.73130
O646        O  0.95842094  0.53224082  0.97177868    -0.73180
O647        O  0.54001005  0.53119232  0.03026502    -0.73230
O648        O  0.54166696  0.96296350  0.02932549    -0.73170
O649        O  0.96003408  0.96400758  0.97069977    -0.73140
O650        O  0.54265360  0.96441743  0.97179638    -0.73120
O651        O  0.95904192  0.96231436  0.02812083    -0.73180
Ni652      Ni  0.99917862  0.53410624  0.00102204     1.25410
Ni653      Ni  0.00093395  0.96097975  0.99994824     1.25360
C654        C  0.94475469  0.99607612  0.03795076     0.89080
C655        C  0.55517397  0.49880694  0.96282752     0.89010
C656        C  0.94608850  0.49834360  0.96159203     0.89040
C657        C  0.55384476  0.49693344  0.03954725     0.89210
C658        C  0.81288412  0.00537508  0.13647520     0.04460
C659        C  0.83709717  0.00854054  0.16106006    -0.11690
C660        C  0.87996780  0.00641984  0.15914451     0.01960
C661        C  0.89766302  0.00019599  0.13230276    -0.10220
C662        C  0.87364973  0.99833879  0.10783866     0.04450
C663        C  0.83118387  0.00072892  0.10988328    -0.09640
H664        H  0.82253130  0.01326875  0.18136677     0.10040
H665        H  0.93049628  0.99701218  0.13019616     0.07570
H666        H  0.81245512  0.99906688  0.09089328     0.07420
C667        C  0.98878820  0.68802061  0.36420036     0.04460
C668        C  0.99055896  0.66886336  0.39073357    -0.11690
C669        C  0.99444198  0.62628493  0.39233569     0.01960
C670        C  0.99691034  0.60304284  0.36751572    -0.10220
C671        C  0.99495189  0.62198697  0.34095290     0.04450
C672        C  0.99053901  0.66458185  0.33930694    -0.09640
H673        H  0.98919954  0.68699277  0.40998330     0.10040
H674        H  0.00023356  0.57006585  0.36881736     0.07570
H675        H  0.98955316  0.67940849  0.31880469     0.07420
C676        C  0.68863910  0.50355135  0.13723758     0.04460
C677        C  0.66660366  0.50132909  0.16249180    -0.11690
C678        C  0.62420450  0.49649552  0.16161282     0.01960
C679        C  0.60395137  0.49462102  0.13536168    -0.10220
C680        C  0.62578119  0.49768462  0.11012402     0.04450
C681        C  0.66823693  0.50194993  0.11103671    -0.09640
H682        H  0.68239512  0.50265310  0.18272666     0.10040
H683        H  0.57104554  0.49145742  0.13462889     0.07570
H684        H  0.68531492  0.50388962  0.09150051     0.07420
C685        C  0.81217971  0.50135727  0.86302380     0.04380
C686        C  0.83526231  0.50369425  0.83810564    -0.11690
C687        C  0.87804940  0.50600722  0.83973065     0.01960
C688        C  0.89735010  0.50519053  0.86634294    -0.10220
C689        C  0.87451295  0.50201765  0.89109378     0.04450
C690        C  0.83190341  0.50032434  0.88948800    -0.09640
H691        H  0.82006588  0.50426549  0.81763862     0.10040
H692        H  0.93038996  0.50629258  0.86774891     0.07570
H693        H  0.81416918  0.49818818  0.90872898     0.07420
C694        C  0.49966932  0.81218030  0.63664516     0.04460
C695        C  0.50019343  0.83114355  0.61003822    -0.11690
C696        C  0.49855564  0.87380866  0.60816750     0.01960
C697        C  0.49597736  0.89743101  0.63283452    -0.10220
C698        C  0.49567300  0.87882110  0.65956629     0.04450
C699        C  0.49790804  0.83600722  0.66141403    -0.09640
H700        H  0.50180497  0.81278333  0.59090131     0.10040
H701        H  0.49479106  0.93048347  0.63126505     0.07570
H702        H  0.49760486  0.82135951  0.68197058     0.07420
C703        C  0.50159348  0.68738404  0.63698249     0.04460
C704        C  0.50107906  0.66782821  0.61047864    -0.11690
C705        C  0.50267852  0.62511481  0.60889632     0.01960
C706        C  0.50518992  0.60206695  0.63371041    -0.10220
C707        C  0.50548537  0.62125669  0.66031249     0.04450
C708        C  0.50329677  0.66409842  0.66190976    -0.09640
H709        H  0.49946514  0.68575371  0.59121402     0.10040
H710        H  0.50627289  0.56897677  0.63235327     0.07570
H711        H  0.50354610  0.67917156  0.68238952     0.07420
C712        C  0.68750280  0.49847960  0.86404546     0.04460
C713        C  0.66363167  0.49630322  0.83930123    -0.11690
C714        C  0.62096007  0.99388920  0.84114102     0.01960
C715        C  0.60245127  0.99435749  0.86785712    -0.10220
C716        C  0.62604014  0.99736722  0.89254167     0.04450
C717        C  0.66864069  0.49921402  0.89067479    -0.09640
H718        H  0.67817314  0.49597482  0.81873628     0.10040
H719        H  0.56946177  0.99313953  0.86939930     0.07570
H720        H  0.68701151  0.50120576  0.90980801     0.07420
C721        C  0.50043509  0.76823115  0.63831916    -0.11950
C722        C  0.50082140  0.73136555  0.63840605    -0.13500
C723        C  0.76821979  0.50032581  0.86174391    -0.11950
C724        C  0.73139051  0.49962904  0.86221303    -0.13500
C725        C  0.76910761  0.00668982  0.13823416    -0.11950
C726        C  0.73235622  0.50618768  0.13819599    -0.13500
C727        C  0.89555357  0.50022353  0.91792272    -0.11950
C728        C  0.91700602  0.49899099  0.93875457    -0.13500
C729        C  0.89360439  0.99570101  0.08079700    -0.11950
C730        C  0.91505570  0.99529975  0.06013874    -0.13500
C731        C  0.60571006  0.49869891  0.91952738    -0.11950
C732        C  0.58447941  0.49928230  0.94032710    -0.13500
C733        C  0.58260796  0.49665974  0.06262797    -0.11950
C734        C  0.60401561  0.49690517  0.08351723    -0.13500
C735        C  0.98679507  0.73183440  0.36259606    -0.11950
C736        C  0.98676548  0.76860952  0.36202972    -0.13500
C737        C  0.96883447  0.90309355  0.29104871    -0.12020
C738        C  0.99945760  0.90098417  0.31186633     0.10130
C739        C  0.53455312  0.92378122  0.30834775    -0.12020
C740        C  0.53672514  0.95197410  0.28649143    -0.12020
C741        C  0.00272644  0.96092931  0.26872603     0.10130
C742        C  0.97112474  0.93185928  0.26911317    -0.12020
H743        H  0.94267359  0.88341696  0.29220929     0.14120
H744        H  0.56011475  0.92026906  0.32288561     0.14120
H745        H  0.56554076  0.96656684  0.28370467     0.14120
H746        H  0.94827569  0.93005082  0.25276769     0.14120
C747        C  0.94524311  0.52905684  0.18103444    -0.12020
C748        C  0.90718681  0.01099866  0.18438171     0.10130
C749        C  0.89690604  0.99687078  0.21148999    -0.12020
C750        C  0.92615979  0.99645668  0.23346355    -0.12020
C751        C  0.96737024  0.00614459  0.22810780     0.10130
C752        C  0.97447087  0.52695011  0.20237149    -0.12020
H753        H  0.95307250  0.54420118  0.16150405     0.14120
H754        H  0.86680480  0.98530727  0.21564414     0.14120
H755        H  0.91642250  0.98818501  0.25447969     0.14120
H756        H  0.00313805  0.54131384  0.19802565     0.14120
C757        C  0.53676719  0.54500965  0.28921002    -0.12020
C758        C  0.00321720  0.53799190  0.27082227     0.10130
C759        C  0.96876801  0.56462261  0.27397385    -0.12020
C760        C  0.96680896  0.59354657  0.29585941    -0.12020
C761        C  0.99897884  0.59668666  0.31528158     0.10130
C762        C  0.53434970  0.57310189  0.31132812    -0.12020
H763        H  0.56568657  0.52949729  0.28660862     0.14120
H764        H  0.94228521  0.56291007  0.26039859     0.14120
H765        H  0.93934653  0.61209993  0.29843310     0.14120
H766        H  0.56011710  0.57614185  0.32565480     0.14120
C767        C  0.54705584  0.46190917  0.21443957    -0.12020
C768        C  0.54254559  0.49668964  0.23203326     0.10130
C769        C  0.56982842  0.52921570  0.22811688    -0.12020
C770        C  0.59872010  0.52769185  0.20646094    -0.12020
C771        C  0.60036532  0.49432258  0.18786115     0.10130
C772        C  0.57526165  0.46094962  0.19250032    -0.12020
H773        H  0.52633455  0.43666542  0.21626847     0.14120
H774        H  0.56670225  0.55758677  0.23966364     0.14120
H775        H  0.61755767  0.55399563  0.20281996     0.14120
H776        H  0.57613494  0.43494738  0.17824748     0.14120
C777        C  0.96171468  0.53684140  0.79018786    -0.12020
C778        C  0.96224579  0.50469718  0.77012403     0.10130
C779        C  0.93138986  0.97509224  0.77207096    -0.12020
C780        C  0.90213844  0.97719318  0.79354140    -0.12020
C781        C  0.90348832  0.50815046  0.81404477     0.10130
C782        C  0.93295535  0.53842316  0.81182804    -0.12020
H783        H  0.98503995  0.55985939  0.78982092     0.14120
H784        H  0.93074089  0.94876436  0.75827461     0.14120
H785        H  0.88005974  0.95309836  0.79522117     0.14120
H786        H  0.93464620  0.56253710  0.82753966     0.14120
C787        C  0.53691948  0.96356704  0.79073341    -0.12020
C788        C  0.53668912  0.99565293  0.77076524     0.10130
C789        C  0.56751963  0.02526417  0.77331020    -0.12020
C790        C  0.59657024  0.02310984  0.79513178    -0.12020
C791        C  0.59499852  0.99216618  0.81546617     0.10130
C792        C  0.56544642  0.96199410  0.81279123    -0.12020
H793        H  0.51359494  0.94055672  0.78991096     0.14120
H794        H  0.56836971  0.05161192  0.75967404     0.14120
H795        H  0.61875846  0.04710274  0.79715167     0.14120
H796        H  0.56365575  0.93785562  0.82834947     0.14120
C797        C  0.02443475  0.90254919  0.70586702    -0.12020
C798        C  0.49359563  0.90480000  0.68520245     0.10130
C799        C  0.46297445  0.93500669  0.68752330    -0.12020
C800        C  0.46398267  0.96350449  0.70951207    -0.12020
C801        C  0.49592008  0.96306748  0.72981008     0.10130
C802        C  0.02598457  0.93156855  0.72768457    -0.12020
H803        H  0.04874123  0.87980481  0.70414246     0.14120
H804        H  0.43889822  0.93732679  0.67173154     0.14120
H805        H  0.44061745  0.98733642  0.71002642     0.14120
H806        H  0.05216125  0.93016816  0.74167391     0.14120
C807        C  0.53621222  0.53682507  0.71045784    -0.12020
C808        C  0.50381499  0.53724514  0.73009942     0.10130
C809        C  0.97390458  0.56885181  0.72763049    -0.12020
C810        C  0.97602473  0.59798072  0.70607482    -0.12020
C811        C  0.50731287  0.59572293  0.68603013     0.10130
C812        C  0.53783155  0.56547038  0.68875470    -0.12020
H813        H  0.55949488  0.51292219  0.71125523     0.14120
H814        H  0.94741092  0.57023738  0.74108853     0.14120
H815        H  0.95177079  0.62073663  0.70397851     0.14120
H816        H  0.56220985  0.56312680  0.67340260     0.14120
C817        C  0.99698977  0.91769178  0.43731170    -0.11950
C818        C  0.99600813  0.89682403  0.41621417    -0.13500
C819        C  0.49953487  0.89407068  0.58115064    -0.11950
C820        C  0.49997440  0.91506880  0.56021333    -0.13500
C821        C  0.99599659  0.60569905  0.41919376    -0.11950
C822        C  0.99705837  0.58425017  0.43988398    -0.13500
C823        C  0.50151115  0.60413230  0.58206332    -0.11950
C824        C  0.50061458  0.58254262  0.56133387    -0.13500
loop_ 
_geom_bond_atom_site_label_1 
_geom_bond_atom_site_label_2 
_geom_bond_distance 
_geom_bond_site_symmetry_2 
_ccdc_geom_bond_type 
O1           Ni9   1.915       .  S
O1           C11   1.279       .  A
O2         Ni215   1.917       .  S
O2          C424   1.279       .  A
O3           Ni9   1.918       .  S
O3          C425   1.280       .  A
O4         Ni215   1.919       .  S
O4           C14   1.280       .  A
O5          Ni10   1.919       .  S
O5          C426   1.280   1_455  A
O6         Ni216   1.918   1_545  S
O6           C13   1.280   1_455  A
O7          Ni10   1.920       .  S
O7           C12   1.280   1_455  A
O8         Ni216   1.918   1_545  S
O8          C423   1.280   1_455  A
Ni9         O208   1.917   1_545  S
Ni9         O210   1.919   1_545  S
Ni9        Ni628   2.394   1_545  S
Ni10        O212   1.918       .  S
Ni10        O214   1.918       .  S
Ni10       Ni627   2.394   1_455  S
C11         O420   1.280       .  A
C11         C204   1.433       .  S
C12         O414   1.279       .  A
C12         C202   1.435       .  S
C13         O415   1.280       .  A
C13         C206   1.435   1_655  S
C14         O417   1.280       .  A
C14         C199   1.436       .  S
C15         C170   1.553   1_655  S
C15         C183   1.553       .  S
C15         C778   1.554       .  S
C15         C396   1.553   1_655  S
C16         C123   1.571       .  S
C16         C133   1.571       .  S
C16         C346   1.566       .  S
C16         C768   1.550       .  S
C17         C118   1.437       .  S
C17          C18   1.402       .  A
C17          C22   1.403       .  A
C18          C19   1.399       .  A
C18          H23   1.085       .  S
C19         C200   1.441       .  S
C19          C20   1.398       .  A
C20          C21   1.405       .  A
C20          H24   1.085       .  S
C21          C22   1.402       .  A
C21         C120   1.475       .  S
C22          H25   1.084       .  S
O26         Ni34   1.919       .  S
O26         C242   1.280   1_545  A
O27        Ni446   1.921   1_456  S
O27          C37   1.280   1_545  A
O28         Ni34   1.915   1_556  S
O28          C38   1.279   1_545  A
O29        Ni446   1.917   1_455  S
O29          C39   1.279   1_545  A
O30        Ni447   1.920   1_554  S
O30         C245   1.280       .  A
O31         Ni35   1.919       .  S
O31         C244   1.280       .  A
O32        Ni447   1.918       .  S
O32         C243   1.280       .  A
O33         Ni35   1.917   1_554  S
O33          C36   1.279       .  A
Ni34        O439   1.921   1_554  S
Ni34        O441   1.917       .  S
Ni34       Ni241   2.394   1_544  S
Ni35        O442   1.920   1_556  S
Ni35        O444   1.918       .  S
Ni35       Ni240   2.394   1_556  S
C36         O232   1.280       .  A
C36         C112   1.435       .  S
C37         O238   1.280       .  A
C37         C114   1.437       .  S
C38         O237   1.280       .  A
C38         C110   1.434       .  S
C39         O236   1.280       .  A
C39         C115   1.435       .  S
C40         C107   1.436       .  S
C40          C41   1.406       .  A
C40          C45   1.401       .  A
C41          C42   1.408       .  A
C41          H46   1.083       .  S
C42          C43   1.410       .  A
C42         C130   1.492       .  S
C43          C44   1.395       .  A
C43          H47   1.084       .  S
C44         C111   1.440       .  S
C44          C45   1.395       .  A
C45          H48   1.085       .  S
C49         C117   1.437       .  S
C49          C50   1.403       .  A
C49          C54   1.402       .  A
C50          C51   1.400       .  A
C50          H55   1.085       .  S
C51         C203   1.438       .  S
C51          C52   1.397       .  A
C52          C53   1.401       .  A
C52          H56   1.085       .  S
C53          C54   1.402       .  A
C53         C143   1.471       .  S
C54          H57   1.084       .  S
C58         C108   1.436       .  S
C58          C59   1.401       .  A
C58          C63   1.403       .  A
C59          C60   1.401   1_545  A
C59          H64   1.084       .  S
C60          C61   1.403       .  A
C60         C153   1.472       .  S
C61          C62   1.398       .  A
C61          H65   1.085       .  S
C62         C116   1.440       .  S
C62          C63   1.400   1_565  A
C63          H66   1.085       .  S
C67         C105   1.441       .  S
C67          C68   1.406       .  A
C67          C72   1.403       .  A
C68          C69   1.406       .  A
C68          H73   1.084       .  S
C69          C70   1.403       .  A
C69         C163   1.478       .  S
C70          C71   1.397       .  A
C70          H74   1.085       .  S
C71         C109   1.439       .  S
C71          C72   1.399       .  A
C72          H75   1.085   1_545  S
C76         C103   1.441   1_655  S
C76          C77   1.403   1_655  A
C76          C81   1.404       .  A
C77          C78   1.400   1_455  A
C77          H82   1.085       .  S
C78         C201   1.440       .  S
C78          C79   1.398       .  A
C79          C80   1.403       .  A
C79          H83   1.085       .  S
C80          C81   1.405       .  A
C80         C180   1.478       .  S
C81          H84   1.084       .  S
C85         C104   1.441       .  S
C85          C86   1.404       .  A
C85          C90   1.404       .  A
C86          C87   1.400       .  A
C86          H91   1.084   1_455  S
C87         C205   1.440       .  S
C87          C88   1.397       .  A
C88          C89   1.402       .  A
C88          H92   1.085       .  S
C89          C90   1.405       .  A
C89         C193   1.477       .  S
C90          H93   1.084       .  S
C94         C106   1.442       .  S
C94          C95   1.404       .  A
C94          C99   1.404       .  A
C95         C302   1.405       .  A
C95         H100   1.084       .  S
C96          C97   1.403       .  A
C96         C301   1.405       .  A
C96         C173   1.477       .  S
C97          C98   1.398       .  A
C97         H101   1.085       .  S
C98         C319   1.442       .  S
C98         C305   1.401       .  A
C99         C304   1.401       .  A
C99         H102   1.084   1_565  S
C103        C104   1.207       .  T
C105        C106   1.207   1_545  T
C107        C314   1.204       .  T
C108        C313   1.204       .  T
C109        C110   1.205   1_545  T
C111        C112   1.206       .  T
C113        C304   1.442       .  S
C113        C114   1.207       .  T
C115        C116   1.206       .  T
C117        C118   1.204       .  T
C119        C120   1.400       .  A
C119        C124   1.405       .  A
C119        H125   1.083       .  S
C120        C533   1.393       .  A
C121        C122   1.390       .  A
C121        C532   1.393   1_455  A
C121        H126   1.084       .  S
C122        C535   1.416       .  A
C122        H127   1.075       .  S
C123        C124   1.419       .  A
C123        C534   1.416       .  A
C124        H128   1.074       .  S
C129        C134   1.386       .  A
C129        C336   1.399       .  A
C129        H135   1.083       .  S
C130        C131   1.407       .  A
C130        C335   1.399       .  A
C131        C132   1.407       .  A
C131        H136   1.082       .  S
C132        C133   1.417       .  A
C132        H137   1.081       .  S
C133        C340   1.418       .  A
C134        C339   1.418       .  A
C134        H138   1.079       .  S
C139        C144   1.391       .  A
C139        C552   1.417       .  A
C139        H145   1.074       .  S
C140        C222   1.566       .  S
C140        C141   1.421       .  A
C140        C551   1.417       .  A
C141        C142   1.400       .  A
C141        H146   1.077       .  S
C142        C143   1.397       .  A
C142        H147   1.083       .  S
C143        C556   1.393       .  A
C144        C555   1.393   1_455  A
C144        H148   1.084       .  S
C149        C150   1.413       .  A
C149        C154   1.392       .  A
C149        H155   1.083       .  S
C150        C634   1.550   1_565  S
C150        C151   1.416   1_565  A
C151        C152   1.398       .  A
C151        H156   1.079       .  S
C152        C153   1.400   1_545  A
C152        H157   1.083       .  S
C153        C154   1.398       .  A
C154        H158   1.083       .  S
C159        C160   1.413       .  A
C159        C164   1.394       .  A
C159        H165   1.083       .  S
C160        C633   1.554       .  S
C160        C367   1.417   1_545  A
C161        C162   1.400       .  A
C161        C366   1.417       .  A
C161        H166   1.079       .  S
C162        C369   1.400       .  A
C162        H167   1.083       .  S
C163        C164   1.400       .  A
C163        C368   1.400   1_545  A
C164        H168   1.083       .  S
C169        C170   1.414       .  A
C169        C174   1.395       .  A
C169        H175   1.083       .  S
C170        C171   1.417       .  A
C171        C172   1.399       .  A
C171        H176   1.079       .  S
C172        C173   1.400       .  A
C172        H177   1.083       .  S
C173        C174   1.400       .  A
C174        H178   1.083       .  S
C179        C184   1.400       .  A
C179        C592   1.401       .  A
C179        H185   1.083       .  S
C180        C181   1.400       .  A
C180        C591   1.401   1_655  A
C181        C182   1.394       .  A
C181        H186   1.083       .  S
C182        C183   1.414       .  A
C182        H187   1.083       .  S
C183        C596   1.416   1_655  A
C184        C595   1.416       .  A
C184        H188   1.079       .  S
C189        C190   1.414       .  A
C189        C194   1.393       .  A
C189        H195   1.083       .  S
C190        C221   1.553   1_455  S
C190        C603   1.416   1_455  A
C191        C192   1.400       .  A
C191        C602   1.416       .  A
C191        H196   1.079       .  S
C192        C605   1.400       .  A
C192        H197   1.083       .  S
C193        C194   1.400       .  A
C193        C604   1.400   1_455  A
C194        H198   1.083       .  S
C199        C200   1.207       .  T
C201        C202   1.206       .  T
C203        C204   1.205       .  T
C205        C206   1.206       .  T
O207       Ni215   1.915       .  S
O207        C217   1.279       .  A
O208        C630   1.279       .  A
O209       Ni215   1.918       .  S
O209        C631   1.280       .  A
O210        C220   1.280       .  A
O211       Ni216   1.919       .  S
O211        C632   1.280   1_455  A
O212        C219   1.280   1_455  A
O213       Ni216   1.920       .  S
O213        C218   1.280   1_455  A
O214        C629   1.280   1_455  A
Ni215      Ni422   2.394       .  S
Ni216      Ni421   2.394   1_465  S
C217        O626   1.280       .  A
C217        C410   1.433       .  S
C218        O620   1.279       .  A
C218        C408   1.435       .  S
C219        O621   1.280       .  A
C219        C412   1.435   1_655  S
C220        O623   1.280       .  A
C220        C405   1.436       .  S
C221        C572   1.554       .  S
C221        C376   1.553   1_645  S
C221        C389   1.553   1_545  S
C222        C329   1.571   1_545  S
C222        C339   1.571       .  S
C222        C562   1.550   1_545  S
C223        C324   1.437       .  S
C223        C224   1.402       .  A
C223        C228   1.403       .  A
C224        C225   1.399       .  A
C224        H229   1.085       .  S
C225        C406   1.441       .  S
C225        C226   1.398       .  A
C226        C227   1.405       .  A
C226        H230   1.085       .  S
C227        C228   1.402       .  A
C227        C326   1.475       .  S
C228        H231   1.084       .  S
O232       Ni240   1.919       .  S
O233       Ni652   1.921   1_456  S
O233        C243   1.280       .  A
O234       Ni240   1.915   1_556  S
O234        C244   1.279       .  A
O235       Ni652   1.917   1_455  S
O235        C245   1.279       .  A
O236       Ni653   1.920   1_554  S
O237       Ni241   1.919       .  S
O238       Ni653   1.918       .  S
O239       Ni241   1.917   1_554  S
O239        C242   1.279       .  A
Ni240       O645   1.921   1_554  S
Ni240       O647   1.917       .  S
Ni241       O648   1.920   1_556  S
Ni241       O650   1.918       .  S
C242        C318   1.435       .  S
C243        C320   1.437       .  S
C244        C316   1.434       .  S
C245        C321   1.435       .  S
C246        C313   1.436       .  S
C246        C247   1.406       .  A
C246        C251   1.401       .  A
C247        C248   1.408       .  A
C247        H252   1.083       .  S
C248        C249   1.410       .  A
C248        C336   1.492       .  S
C249        C250   1.395   1_545  A
C249        H253   1.084   1_545  S
C250        C317   1.440       .  S
C250        C251   1.395   1_565  A
C251        H254   1.085   1_545  S
C255        C323   1.437       .  S
C255        C256   1.403       .  A
C255        C260   1.402       .  A
C256        C257   1.400       .  A
C256        H261   1.085       .  S
C257        C409   1.438       .  S
C257        C258   1.397       .  A
C258        C259   1.401       .  A
C258        H262   1.085       .  S
C259        C260   1.402       .  A
C259        C349   1.471       .  S
C260        H263   1.084       .  S
C264        C314   1.436       .  S
C264        C265   1.401       .  A
C264        C269   1.403       .  A
C265        C266   1.401       .  A
C265        H270   1.084       .  S
C266        C267   1.403       .  A
C266        C359   1.472       .  S
C267        C268   1.398       .  A
C267        H271   1.085       .  S
C268        C322   1.440       .  S
C268        C269   1.400       .  A
C269        H272   1.085       .  S
C273        C311   1.441       .  S
C273        C274   1.406       .  A
C273        C278   1.403       .  A
C274        C275   1.406       .  A
C274        H279   1.084       .  S
C275        C276   1.403       .  A
C275        C369   1.478       .  S
C276        C277   1.397       .  A
C276        H280   1.085       .  S
C277        C315   1.439       .  S
C277        C278   1.399       .  A
C278        H281   1.085       .  S
C282        C309   1.441   1_655  S
C282        C283   1.403   1_655  A
C282        C287   1.404       .  A
C283        C284   1.400   1_455  A
C283        H288   1.085       .  S
C284        C407   1.440       .  S
C284        C285   1.398       .  A
C285        C286   1.403       .  A
C285        H289   1.085       .  S
C286        C287   1.405       .  A
C286        C386   1.478       .  S
C287        H290   1.084       .  S
C291        C310   1.441       .  S
C291        C292   1.404       .  A
C291        C296   1.404       .  A
C292        C293   1.400       .  A
C292        H297   1.084   1_455  S
C293        C411   1.440       .  S
C293        C294   1.397       .  A
C294        C295   1.402       .  A
C294        H298   1.085       .  S
C295        C296   1.405       .  A
C295        C399   1.477       .  S
C296        H299   1.084       .  S
C300        C312   1.442       .  S
C300        C301   1.404       .  A
C300        C305   1.404       .  A
C301        H306   1.084       .  S
C302        C303   1.403       .  A
C302        C379   1.477       .  S
C303        C304   1.398       .  A
C303        H307   1.085       .  S
C305        H308   1.084       .  S
C309        C310   1.207       .  T
C311        C312   1.207       .  T
C315        C316   1.205       .  T
C317        C318   1.206       .  T
C319        C320   1.207       .  T
C321        C322   1.206       .  T
C323        C324   1.204       .  T
C325        C326   1.400       .  A
C325        C330   1.405       .  A
C325        H331   1.083       .  S
C326        C739   1.393       .  A
C327        C738   1.393   1_455  A
C327        C328   1.390       .  A
C327        H332   1.084       .  S
C328        C741   1.416       .  A
C328        H333   1.075       .  S
C329        C740   1.416       .  A
C329        C330   1.419       .  A
C330        H334   1.074       .  S
C335        C340   1.386       .  A
C335        H341   1.083       .  S
C336        C337   1.407   1_545  A
C337        C338   1.407       .  A
C337        H342   1.082       .  S
C338        C339   1.417   1_565  A
C338        H343   1.081       .  S
C340        H344   1.079       .  S
C345        C758   1.417       .  A
C345        C350   1.391       .  A
C345        H351   1.074       .  S
C346        C757   1.417       .  A
C346        C347   1.421       .  A
C347        C348   1.400       .  A
C347        H352   1.077       .  S
C348        C349   1.397       .  A
C348        H353   1.083       .  S
C349        C762   1.393       .  A
C350        C761   1.393   1_455  A
C350        H354   1.084       .  S
C355        C356   1.413       .  A
C355        C360   1.392       .  A
C355        H361   1.083       .  S
C356        C428   1.550       .  S
C356        C357   1.416       .  A
C357        C358   1.398       .  A
C357        H362   1.079       .  S
C358        C359   1.400       .  A
C358        H363   1.083       .  S
C359        C360   1.398       .  A
C360        H364   1.083       .  S
C365        C366   1.413       .  A
C365        C370   1.394       .  A
C365        H371   1.083       .  S
C366        C427   1.554       .  S
C367        C368   1.400       .  A
C367        H372   1.079       .  S
C368        H373   1.083       .  S
C369        C370   1.400       .  A
C370        H374   1.083       .  S
C375        C376   1.414       .  A
C375        C380   1.395       .  A
C375        H381   1.083       .  S
C376        C377   1.417   1_565  A
C377        C378   1.399       .  A
C377        H382   1.079       .  S
C378        C379   1.400   1_545  A
C378        H383   1.083       .  S
C379        C380   1.400       .  A
C380        H384   1.083       .  S
C385        C798   1.401       .  A
C385        C390   1.400       .  A
C385        H391   1.083       .  S
C386        C797   1.401   1_655  A
C386        C387   1.400       .  A
C387        C388   1.394       .  A
C387        H392   1.083       .  S
C388        C389   1.414       .  A
C388        H393   1.083       .  S
C389        C802   1.416   1_655  A
C390        C801   1.416       .  A
C390        H394   1.079       .  S
C395        C396   1.414       .  A
C395        C400   1.393       .  A
C395        H401   1.083       .  S
C396        C809   1.416   1_455  A
C397        C808   1.416       .  A
C397        C398   1.400       .  A
C397        H402   1.079       .  S
C398        C811   1.400       .  A
C398        H403   1.083       .  S
C399        C810   1.400   1_455  A
C399        C400   1.400       .  A
C400        H404   1.083       .  S
C405        C406   1.207       .  T
C407        C408   1.206       .  T
C409        C410   1.205       .  T
C411        C412   1.206       .  T
O413       Ni421   1.915       .  S
O413        C423   1.279       .  A
O414       Ni627   1.917       .  S
O415       Ni421   1.918       .  S
O416       Ni627   1.919       .  S
O416        C426   1.280       .  A
O417       Ni422   1.919       .  S
O418       Ni628   1.918   1_545  S
O418        C425   1.280       .  A
O419       Ni422   1.920       .  S
O419        C424   1.280       .  A
O420       Ni628   1.918   1_545  S
Ni421       O620   1.917   1_545  S
Ni421       O622   1.919   1_545  S
Ni422       O624   1.918       .  S
Ni422       O626   1.918       .  S
C423        C616   1.433       .  S
C424        C614   1.435       .  S
C425        C618   1.435       .  S
C426        C611   1.436       .  S
C427        C582   1.553       .  S
C427        C595   1.553       .  S
C427        C808   1.553       .  S
C428        C535   1.571       .  S
C428        C545   1.571   1_455  S
C428        C758   1.566       .  S
C429        C530   1.437       .  S
C429        C430   1.402       .  A
C429        C434   1.403       .  A
C430        C431   1.399       .  A
C430        H435   1.085       .  S
C431        C612   1.441       .  S
C431        C432   1.398       .  A
C432        C433   1.405       .  A
C432        H436   1.085   1_655  S
C433        C434   1.402       .  A
C433        C532   1.475       .  S
C434        H437   1.084       .  S
O438       Ni446   1.919       .  S
O438        C654   1.280   1_545  A
O439        C449   1.280   1_545  A
O440       Ni446   1.915   1_556  S
O440        C450   1.279   1_545  A
O441        C451   1.279   1_545  A
O442        C657   1.280       .  A
O443       Ni447   1.919   1_655  S
O443        C656   1.280       .  A
O444        C655   1.280       .  A
O445       Ni447   1.917   1_654  S
O445        C448   1.279       .  A
Ni446      Ni653   2.394   1_644  S
Ni447      Ni652   2.394   1_456  S
C448        O644   1.280       .  A
C448        C524   1.435       .  S
C449        O650   1.280       .  A
C449        C526   1.437       .  S
C450        O649   1.280       .  A
C450        C522   1.434       .  S
C451        O648   1.280       .  A
C451        C527   1.435       .  S
C452        C519   1.436       .  S
C452        C453   1.406       .  A
C452        C457   1.401       .  A
C453        C454   1.408       .  A
C453        H458   1.083       .  S
C454        C455   1.410       .  A
C454        C542   1.492       .  S
C455        C456   1.395       .  A
C455        H459   1.084       .  S
C456        C523   1.440       .  S
C456        C457   1.395       .  A
C457        H460   1.085       .  S
C461        C529   1.437       .  S
C461        C462   1.403       .  A
C461        C466   1.402       .  A
C462        C463   1.400       .  A
C462        H467   1.085       .  S
C463        C615   1.438       .  S
C463        C464   1.397       .  A
C464        C465   1.401       .  A
C464        H468   1.085   1_655  S
C465        C466   1.402       .  A
C465        C555   1.471       .  S
C466        H469   1.084       .  S
C470        C520   1.436       .  S
C470        C471   1.401       .  A
C470        C475   1.403       .  A
C471        C472   1.401   1_545  A
C471        H476   1.084       .  S
C472        C473   1.403       .  A
C472        C565   1.472       .  S
C473        C474   1.398       .  A
C473        H477   1.085       .  S
C474        C528   1.440       .  S
C474        C475   1.400   1_565  A
C475        H478   1.085       .  S
C479        C517   1.441       .  S
C479        C480   1.406       .  A
C479        C484   1.403       .  A
C480        C481   1.406       .  A
C480        H485   1.084       .  S
C481        C482   1.403       .  A
C481        C575   1.478       .  S
C482        C483   1.397       .  A
C482        H486   1.085       .  S
C483        C521   1.439       .  S
C483        C484   1.399       .  A
C484        H487   1.085   1_545  S
C488        C515   1.441       .  S
C488        C489   1.403       .  A
C488        C493   1.404       .  A
C489        C490   1.400       .  A
C489        H494   1.085       .  S
C490        C613   1.440       .  S
C490        C491   1.398       .  A
C491        C492   1.403       .  A
C491        H495   1.085       .  S
C492        C493   1.405       .  A
C492        C592   1.478       .  S
C493        H496   1.084       .  S
C497        C516   1.441       .  S
C497        C498   1.404       .  A
C497        C502   1.404       .  A
C498        C499   1.400       .  A
C498        H503   1.084       .  S
C499        C617   1.440       .  S
C499        C500   1.397       .  A
C500        C501   1.402       .  A
C500        H504   1.085       .  S
C501        C502   1.405       .  A
C501        C605   1.477       .  S
C502        H505   1.084       .  S
C506        C518   1.442       .  S
C506        C507   1.404       .  A
C506        C511   1.404       .  A
C507        C714   1.405       .  A
C507        H512   1.084       .  S
C508        C713   1.405       .  A
C508        C509   1.403       .  A
C508        C585   1.477       .  S
C509        C510   1.398       .  A
C509        H513   1.085       .  S
C510        C731   1.442       .  S
C510        C717   1.401       .  A
C511        C716   1.401       .  A
C511        H514   1.084   1_565  S
C515        C516   1.207       .  T
C517        C518   1.207   1_545  T
C519        C726   1.204       .  T
C520        C725   1.204       .  T
C521        C522   1.205   1_545  T
C523        C524   1.206       .  T
C525        C716   1.442       .  S
C525        C526   1.207       .  T
C527        C528   1.206       .  T
C529        C530   1.204       .  T
C531        C532   1.400       .  A
C531        C536   1.405       .  A
C531        H537   1.083       .  S
C533        C534   1.390       .  A
C533        H538   1.084       .  S
C534        H539   1.075       .  S
C535        C536   1.419   1_455  A
C536        H540   1.074       .  S
C541        C748   1.399       .  A
C541        C546   1.386       .  A
C541        H547   1.083       .  S
C542        C747   1.399       .  A
C542        C543   1.407       .  A
C543        C544   1.407       .  A
C543        H548   1.082       .  S
C544        C545   1.417       .  A
C544        H549   1.081       .  S
C545        C752   1.418       .  A
C546        C751   1.418       .  A
C546        H550   1.079   1_655  S
C551        C556   1.391       .  A
C551        H557   1.074       .  S
C552        C634   1.566       .  S
C552        C553   1.421   1_455  A
C553        C554   1.400       .  A
C553        H558   1.077       .  S
C554        C555   1.397       .  A
C554        H559   1.083       .  S
C556        H560   1.084       .  S
C561        C562   1.413       .  A
C561        C566   1.392       .  A
C561        H567   1.083       .  S
C562        C563   1.416   1_565  A
C563        C564   1.398       .  A
C563        H568   1.079       .  S
C564        C565   1.400   1_545  A
C564        H569   1.083       .  S
C565        C566   1.398       .  A
C566        H570   1.083       .  S
C571        C572   1.413       .  A
C571        C576   1.394       .  A
C571        H577   1.083       .  S
C572        C779   1.417   1_545  A
C573        C778   1.417       .  A
C573        C574   1.400       .  A
C573        H578   1.079       .  S
C574        C781   1.400       .  A
C574        H579   1.083       .  S
C575        C780   1.400   1_545  A
C575        C576   1.400       .  A
C576        H580   1.083       .  S
C581        C582   1.414       .  A
C581        C586   1.395       .  A
C581        H587   1.083       .  S
C582        C583   1.417       .  A
C583        C584   1.399       .  A
C583        H588   1.079       .  S
C584        C585   1.400       .  A
C584        H589   1.083       .  S
C585        C586   1.400       .  A
C586        H590   1.083       .  S
C591        C596   1.400       .  A
C591        H597   1.083       .  S
C592        C593   1.400       .  A
C593        C594   1.394       .  A
C593        H598   1.083       .  S
C594        C595   1.414       .  A
C594        H599   1.083       .  S
C596        H600   1.079       .  S
C601        C602   1.414       .  A
C601        C606   1.393       .  A
C601        H607   1.083       .  S
C602        C633   1.553       .  S
C603        C604   1.400       .  A
C603        H608   1.079       .  S
C604        H609   1.083       .  S
C605        C606   1.400       .  A
C606        H610   1.083       .  S
C611        C612   1.207       .  T
C613        C614   1.206       .  T
C615        C616   1.205       .  T
C617        C618   1.206       .  T
O619       Ni627   1.915       .  S
O619        C629   1.279       .  A
O621       Ni627   1.918       .  S
O622        C632   1.280       .  A
O623       Ni628   1.919       .  S
O624        C631   1.280       .  A
O625       Ni628   1.920       .  S
O625        C630   1.280       .  A
C629        C822   1.433       .  S
C630        C820   1.435       .  S
C631        C824   1.435       .  S
C632        C817   1.436       .  S
C633        C788   1.553   1_545  S
C633        C801   1.553   1_545  S
C634        C741   1.571   1_545  S
C634        C751   1.571   1_455  S
C635        C736   1.437       .  S
C635        C636   1.402       .  A
C635        C640   1.403       .  A
C636        C637   1.399       .  A
C636        H641   1.085       .  S
C637        C818   1.441       .  S
C637        C638   1.398       .  A
C638        C639   1.405       .  A
C638        H642   1.085   1_655  S
C639        C640   1.402       .  A
C639        C738   1.475       .  S
C640        H643   1.084       .  S
O644       Ni652   1.919       .  S
O645        C655   1.280       .  A
O646       Ni652   1.915   1_556  S
O646        C656   1.279       .  A
O647        C657   1.279       .  A
O649       Ni653   1.919   1_655  S
O651       Ni653   1.917   1_654  S
O651        C654   1.279       .  A
C654        C730   1.435       .  S
C655        C732   1.437       .  S
C656        C728   1.434       .  S
C657        C733   1.435       .  S
C658        C725   1.436       .  S
C658        C659   1.406       .  A
C658        C663   1.401       .  A
C659        C660   1.408       .  A
C659        H664   1.083       .  S
C660        C661   1.410       .  A
C660        C748   1.492       .  S
C661        C662   1.395   1_545  A
C661        H665   1.084   1_545  S
C662        C729   1.440       .  S
C662        C663   1.395   1_565  A
C663        H666   1.085   1_545  S
C667        C735   1.437       .  S
C667        C668   1.403       .  A
C667        C672   1.402       .  A
C668        C669   1.400       .  A
C668        H673   1.085       .  S
C669        C821   1.438       .  S
C669        C670   1.397       .  A
C670        C671   1.401       .  A
C670        H674   1.085   1_655  S
C671        C672   1.402       .  A
C671        C761   1.471       .  S
C672        H675   1.084       .  S
C676        C726   1.436       .  S
C676        C677   1.401       .  A
C676        C681   1.403       .  A
C677        C678   1.401       .  A
C677        H682   1.084       .  S
C678        C679   1.403       .  A
C678        C771   1.472       .  S
C679        C680   1.398       .  A
C679        H683   1.085       .  S
C680        C734   1.440       .  S
C680        C681   1.400       .  A
C681        H684   1.085       .  S
C685        C723   1.441       .  S
C685        C686   1.406       .  A
C685        C690   1.403       .  A
C686        C687   1.406       .  A
C686        H691   1.084       .  S
C687        C688   1.403       .  A
C687        C781   1.478       .  S
C688        C689   1.397       .  A
C688        H692   1.085       .  S
C689        C727   1.439       .  S
C689        C690   1.399       .  A
C690        H693   1.085       .  S
C694        C721   1.441       .  S
C694        C695   1.403       .  A
C694        C699   1.404       .  A
C695        C696   1.400       .  A
C695        H700   1.085       .  S
C696        C819   1.440       .  S
C696        C697   1.398       .  A
C697        C698   1.403       .  A
C697        H701   1.085       .  S
C698        C699   1.405       .  A
C698        C798   1.478       .  S
C699        H702   1.084       .  S
C703        C722   1.441       .  S
C703        C704   1.404       .  A
C703        C708   1.404       .  A
C704        C705   1.400       .  A
C704        H709   1.084       .  S
C705        C823   1.440       .  S
C705        C706   1.397       .  A
C706        C707   1.402       .  A
C706        H710   1.085       .  S
C707        C708   1.405       .  A
C707        C811   1.477       .  S
C708        H711   1.084       .  S
C712        C724   1.442       .  S
C712        C713   1.404       .  A
C712        C717   1.404       .  A
C713        H718   1.084       .  S
C714        C715   1.403       .  A
C714        C791   1.477       .  S
C715        C716   1.398       .  A
C715        H719   1.085       .  S
C717        H720   1.084       .  S
C721        C722   1.207       .  T
C723        C724   1.207       .  T
C727        C728   1.205       .  T
C729        C730   1.206       .  T
C731        C732   1.207       .  T
C733        C734   1.206       .  T
C735        C736   1.204       .  T
C737        C738   1.400       .  A
C737        C742   1.405       .  A
C737        H743   1.083       .  S
C739        C740   1.390       .  A
C739        H744   1.084       .  S
C740        H745   1.075       .  S
C741        C742   1.419   1_455  A
C742        H746   1.074       .  S
C747        C752   1.386       .  A
C747        H753   1.083       .  S
C748        C749   1.407   1_545  A
C749        C750   1.407       .  A
C749        H754   1.082       .  S
C750        C751   1.417   1_565  A
C750        H755   1.081       .  S
C752        H756   1.079   1_655  S
C757        C762   1.391       .  A
C757        H763   1.074       .  S
C758        C759   1.421   1_455  A
C759        C760   1.400       .  A
C759        H764   1.077       .  S
C760        C761   1.397       .  A
C760        H765   1.083       .  S
C762        H766   1.084       .  S
C767        C768   1.413       .  A
C767        C772   1.392       .  A
C767        H773   1.083       .  S
C768        C769   1.416       .  A
C769        C770   1.398       .  A
C769        H774   1.079       .  S
C770        C771   1.400       .  A
C770        H775   1.083       .  S
C771        C772   1.398       .  A
C772        H776   1.083       .  S
C777        C778   1.413       .  A
C777        C782   1.394       .  A
C777        H783   1.083       .  S
C779        C780   1.400       .  A
C779        H784   1.079       .  S
C780        H785   1.083       .  S
C781        C782   1.400       .  A
C782        H786   1.083       .  S
C787        C788   1.414       .  A
C787        C792   1.395       .  A
C787        H793   1.083       .  S
C788        C789   1.417   1_565  A
C789        C790   1.399       .  A
C789        H794   1.079       .  S
C790        C791   1.400   1_545  A
C790        H795   1.083       .  S
C791        C792   1.400       .  A
C792        H796   1.083       .  S
C797        C802   1.400       .  A
C797        H803   1.083       .  S
C798        C799   1.400       .  A
C799        C800   1.394       .  A
C799        H804   1.083       .  S
C800        C801   1.414       .  A
C800        H805   1.083       .  S
C802        H806   1.079       .  S
C807        C808   1.414       .  A
C807        C812   1.393       .  A
C807        H813   1.083       .  S
C809        C810   1.400       .  A
C809        H814   1.079       .  S
C810        H815   1.083       .  S
C811        C812   1.400       .  A
C812        H816   1.083       .  S
C817        C818   1.207       .  T
C819        C820   1.206       .  T
C821        C822   1.205       .  T
C823        C824   1.206       .  T
