geometry optimzed in LAMMPS
_audit_creation_date              2020-11-30 
_audit_creation_method            'lammps2cif' 
_symmetry_space_group_name_H-M    'P1' 
_symmetry_Int_Tables_number       1 
_symmetry_cell_setting            triclinic 
loop_ 
_symmetry_equiv_pos_as_xyz 
  x,y,z 
_cell_length_a                    36.62276246038199 
_cell_length_b                    36.62263410856163 
_cell_length_c                    36.62262851092963 
_cell_angle_alpha                 90.00828655884219 
_cell_angle_beta                  90.0013542080838 
_cell_angle_gamma                 90.00544180764841 
loop_ 
_atom_site_label 
_atom_site_type_symbol 
_atom_site_fract_x 
_atom_site_fract_y 
_atom_site_fract_z 
_atom_site_charge 
O1          O  0.50001174  0.05187475  0.27969563    -0.68590
O2          O  0.00002452  0.44814557  0.27970771    -0.68810
O3          O  0.05188590  0.00002068  0.27969027    -0.68670
O4          O  0.44815586  0.49999983  0.27971490    -0.68680
O5          O  0.44814500  0.00001488  0.22031209    -0.68640
O6          O  0.05186804  0.49997502  0.22028849    -0.68660
O7          O  0.49997810  0.44813035  0.22030750    -0.68600
O8          O  0.00002833  0.05185965  0.22029541    -0.68780
V9          V  0.00001985  0.00000992  0.27854675     1.35240
V10         V  0.00000348  0.49999524  0.22145631     1.35170
C11         C  0.00001897  0.06937614  0.24999362     0.80650
C12         C  0.99999723  0.43062902  0.25000957     0.80700
C13         C  0.06938591  0.49999580  0.24998383     0.80570
C14         C  0.43063886  0.50000955  0.25001948     0.80540
O15         O  0.47030407  0.19813176  0.25000877    -0.68590
O16         O  0.47029227  0.30186126  0.24999261    -0.68810
O17         O  0.47030077  0.24998111  0.19813559    -0.68670
O18         O  0.47029607  0.25001194  0.30186550    -0.68680
O19         O  0.02969607  0.24999380  0.30186935    -0.68640
O20         O  0.02970077  0.25002368  0.19814076    -0.68660
O21         O  0.02969226  0.30187316  0.25002705    -0.68600
O22         O  0.02970408  0.19814417  0.24998250    -0.68780
V23         V  0.47145296  0.24999672  0.25000074     1.35240
V24         V  0.02854339  0.25000846  0.25000484     1.35170
C25         C  0.50000608  0.18062902  0.24999343     0.80650
C26         C  0.49999049  0.31937615  0.25001176     0.80700
C27         C  0.50000205  0.25000257  0.18062924     0.80570
C28         C  0.49999542  0.25000292  0.31937638     0.80540
O29         O  0.19816733  0.02969701  0.25004718    -0.68590
O30         O  0.30189650  0.02971010  0.24996790    -0.68810
O31         O  0.25000416  0.02970448  0.19814317    -0.68670
O32         O  0.25011960  0.02970296  0.30187257    -0.68680
O33         O  0.24997064  0.47030270  0.30186269    -0.68640
O34         O  0.25007622  0.47030429  0.19813326    -0.68660
O35         O  0.30188125  0.47030944  0.25004624    -0.68600
O36         O  0.19815223  0.47029722  0.24994960    -0.68780
V37         V  0.25003636  0.02854882  0.25000761     1.35240
V38         V  0.25001785  0.47145818  0.24999815     1.35170
C39         C  0.18064209  0.49999521  0.24996468     0.80650
C40         C  0.31938913  0.50001156  0.25004039     0.80700
C41         C  0.25005102  0.00000478  0.18062936     0.80570
C42         C  0.25021480  0.00000267  0.31937731     0.80540
O43         O  0.22129252  0.05185065  0.49999350    -0.68590
O44         O  0.22076018  0.44805686  0.00001053    -0.68810
O45         O  0.22058954  0.99992746  0.05186070    -0.68670
O46         O  0.22029423  0.49998935  0.44813851    -0.68680
O47         O  0.28068453  0.00001872  0.44811839    -0.68640
O48         O  0.27999115  0.50009416  0.05187278    -0.68660
O49         O  0.27968784  0.44813742  0.49998129    -0.68600
O50         O  0.27981984  0.05197541  0.00002619    -0.68780
V51         V  0.22174816  0.99991729  0.00000230     1.35240
V52         V  0.27883861  0.50010431  0.00000366     1.35170
C53         C  0.25006135  0.06938426  0.00001238     0.80650
C54         C  0.25050852  0.43063736  0.99999397     0.80700
C55         C  0.25028347  0.00001019  0.06937658     0.80570
C56         C  0.25096514  0.00000341  0.43062825     0.80540
O57         O  0.05187706  0.27969536  0.49999270    -0.68590
O58         O  0.44813776  0.27963694  0.00002176    -0.68810
O59         O  0.00001523  0.27970442  0.05187183    -0.68670
O60         O  0.49999229  0.27970345  0.44814252    -0.68680
O61         O  0.00000809  0.22030324  0.44813401    -0.68640
O62         O  0.50005536  0.22030422  0.05186313    -0.68660
O63         O  0.44813046  0.22031129  0.49998288    -0.68600
O64         O  0.05193913  0.22037247  0.00001443    -0.68780
V65         V  0.00000285  0.27854969  0.00000699     1.35240
V66         V  0.50007155  0.22145912  0.99999875     1.35170
C67         C  0.06941272  0.25009593  0.00000380     0.80650
C68         C  0.43066563  0.24991356  0.00000232     0.80700
C69         C  0.50003058  0.25000425  0.06937641     0.80570
C70         C  0.49999825  0.25000331  0.43062931     0.80540
O71         O  0.25018805  0.30188339  0.02969816    -0.68590
O72         O  0.24993228  0.19815405  0.02971020    -0.68810
O73         O  0.30191213  0.24990824  0.02970400    -0.68670
O74         O  0.19818313  0.25012882  0.02970435    -0.68680
O75         O  0.19815123  0.24994479  0.47030482    -0.68640
O76         O  0.30188027  0.25004757  0.47030358    -0.68660
O77         O  0.25010899  0.19813130  0.47031033    -0.68600
O78         O  0.24996963  0.30186076  0.47029806    -0.68780
V79         V  0.25004961  0.25001846  0.02854940     1.35240
V80         V  0.25001928  0.24999633  0.47145901     1.35170
C81         C  0.25028849  0.31938456  0.99999610     0.80650
C82         C  0.24988684  0.18063747  0.00001204     0.80700
C83         C  0.31941897  0.24985980  0.00000360     0.80570
C84         C  0.18067217  0.25016043  0.00000450     0.80540
C85         C  0.39149978  0.24986156  0.00000265    -0.10090
C86         C  0.35858449  0.24983568  0.00000318    -0.11640
C87         C  0.14150135  0.25017979  0.00000462    -0.10090
C88         C  0.10858315  0.25014947  0.00000435    -0.11640
C89         C  0.25048831  0.35855242  0.99999198    -0.10090
C90         C  0.25058785  0.39146915  0.99999119    -0.11640
C91         C  0.24986705  0.14146916  0.00001594    -0.10090
C92         C  0.24993067  0.10855236  0.00001598    -0.11640
C93         C  0.25055835  0.00000236  0.35854380    -0.10090
C94         C  0.25086752  0.00000279  0.39146044    -0.11640
C95         C  0.25015533  0.00000598  0.14146132    -0.10090
C96         C  0.25025310  0.00000815  0.10854470    -0.11640
C97         C  0.49999425  0.25000305  0.35854447    -0.10090
C98         C  0.49999515  0.25000320  0.39146122    -0.11640
C99         C  0.50001741  0.25000397  0.10854447    -0.10090
C100        C  0.50000643  0.25000325  0.14146118    -0.11640
C101        C  0.10855517  0.49999186  0.24997251    -0.10090
C102        C  0.14147263  0.49999130  0.24996318    -0.11640
C103        C  0.35855590  0.50001518  0.25004107    -0.10090
C104        C  0.39147189  0.50001403  0.25003101    -0.11640
C105        C  0.99998712  0.35854422  0.25001450    -0.10090
C106        C  0.99998958  0.39146095  0.25001369    -0.11640
C107        C  0.00001542  0.10854422  0.24998978    -0.09970
C108        C  0.50001088  0.14146094  0.24998981    -0.11640
O109        O  0.49999987  0.05187478  0.77969595    -0.68590
O110        O  0.00001036  0.44814557  0.77970774    -0.68810
O111        O  0.05187597  0.00002068  0.77971180    -0.68670
O112        O  0.44814085  0.49999983  0.77968968    -0.68680
O113        O  0.44815472  0.00001488  0.72029152    -0.68640
O114        O  0.05188302  0.49997503  0.72031380    -0.68660
O115        O  0.49999220  0.44813036  0.72030752    -0.68600
O116        O  0.00004012  0.05185962  0.72029575    -0.68780
V117        V  0.00000920  0.00000992  0.77854715     1.35240
V118        V  0.00001744  0.49999525  0.72145634     1.35170
C119        C  0.00001894  0.06937614  0.74999392     0.80650
C120        C  0.99999721  0.43062902  0.75000959     0.80700
C121        C  0.06938588  0.49999582  0.75001825     0.80570
C122        C  0.43063883  0.50000957  0.74998516     0.80540
O123        O  0.47030405  0.19813177  0.75001120    -0.68590
O124        O  0.47029225  0.30186126  0.74999491    -0.68810
O125        O  0.47029660  0.24998100  0.69813838    -0.68670
O126        O  0.47030019  0.25001205  0.80186828    -0.68680
O127        O  0.02970022  0.24999391  0.80186656    -0.68640
O128        O  0.02969664  0.25002356  0.69813798    -0.68660
O129        O  0.02969228  0.30187316  0.75002461    -0.68600
O130        O  0.02970409  0.19814417  0.74998020    -0.68780
V131        V  0.47145293  0.24999672  0.75000318     1.35240
V132        V  0.02854341  0.25000846  0.75000239     1.35170
C133        C  0.50000606  0.18062902  0.74999350     0.80650
C134        C  0.49999047  0.31937615  0.75001168     0.80700
C135        C  0.49999614  0.25000236  0.68062925     0.80570
C136        C  0.50000128  0.25000312  0.81937637     0.80540
O137        O  0.19816726  0.02969698  0.74999529    -0.68590
O138        O  0.30189645  0.02971007  0.75001720    -0.68810
O139        O  0.25008858  0.02970227  0.69814135    -0.68670
O140        O  0.25003506  0.02970513  0.80187080    -0.68680
O141        O  0.25004644  0.47030488  0.80186420    -0.68640
O142        O  0.25000032  0.47030219  0.69813473    -0.68660
O143        O  0.30188123  0.47030949  0.74998310    -0.68600
O144        O  0.19815217  0.47029727  0.75001570    -0.68780
V145        V  0.25003630  0.02854879  0.75000598     1.35240
V146        V  0.25001781  0.47145823  0.74999960     1.35170
C147        C  0.18064206  0.49999527  0.75003862     0.80650
C148        C  0.31938909  0.50001161  0.74996693     0.80700
C149        C  0.25021409  0.00000187  0.68062843     0.80570
C150        C  0.25005155  0.00000559  0.81937639     0.80540
O151        O  0.22042019  0.05177519  0.99999415    -0.68590
O152        O  0.22028784  0.44814139  0.50001019    -0.68810
O153        O  0.22128452  0.00002085  0.55184690    -0.68670
O154        O  0.22059142  0.49989643  0.94814209    -0.68680
O155        O  0.27998916  0.00012442  0.94813279    -0.68640
O156        O  0.27969414  0.49998813  0.55186926    -0.68660
O157        O  0.28015990  0.44823579  0.99998128    -0.68600
O158        O  0.28069245  0.05188760  0.50002651    -0.68780
V159        V  0.22245221  0.00000475  0.50000226     1.35240
V160        V  0.27854008  0.50000344  0.50000365     1.35170
C161        C  0.25097633  0.06937882  0.50001224     0.80650
C162        C  0.24998442  0.43063045  0.49999378     0.80700
C163        C  0.25096501  0.00000396  0.56937763     0.80570
C164        C  0.25028341  0.00001004  0.93062931     0.80540
O165        O  0.05186656  0.27977235  0.99999265    -0.68590
O166        O  0.44814802  0.27971182  0.50002180    -0.68810
O167        O  0.00002370  0.27970349  0.55187183    -0.68670
O168        O  0.49998378  0.27970433  0.94814247    -0.68680
O169        O  0.00008462  0.22030421  0.94813400    -0.68640
O170        O  0.49997880  0.22030329  0.55186318    -0.68660
O171        O  0.44820966  0.22023656  0.99998284    -0.68600
O172        O  0.05185970  0.22029552  0.50001448    -0.68780
V173        V  0.00001007  0.27854873  0.50000702     1.35240
V174        V  0.49999487  0.22145812  0.49999878     1.35170
C175        C  0.06937862  0.24999166  0.50000389     0.80650
C176        C  0.43063155  0.25001545  0.50000239     0.80700
C177        C  0.49999950  0.25000336  0.56937644     0.80570
C178        C  0.50002928  0.25000420  0.93062928     0.80540
O179        O  0.24994107  0.30187615  0.52969825    -0.68590
O180        O  0.25014117  0.19814667  0.52971050    -0.68810
O181        O  0.30188211  0.25009345  0.52970427    -0.68670
O182        O  0.19815302  0.24992993  0.52970449    -0.68680
O183        O  0.19818145  0.25014380  0.97030449    -0.68640
O184        O  0.30191019  0.24986251  0.97030350    -0.68660
O185        O  0.24990012  0.19813893  0.97031002    -0.68600
O186        O  0.25021660  0.30186801  0.97029798    -0.68780
V187        V  0.25002103  0.25001119  0.52854960     1.35240
V188        V  0.25004787  0.25000372  0.97145880     1.35170
C189        C  0.24994980  0.31937744  0.49999614     0.80650
C190        C  0.25024101  0.18062967  0.50001234     0.80700
C191        C  0.31938830  0.25007201  0.50000378     0.80570
C192        C  0.18064129  0.24993613  0.50000476     0.80540
C193        C  0.39146677  0.25002841  0.50000279    -0.10090
C194        C  0.35855226  0.25005572  0.50000339    -0.11640
C195        C  0.14146900  0.24995243  0.50000491    -0.10090
C196        C  0.10855008  0.24997909  0.50000456    -0.11640
C197        C  0.24995417  0.35854559  0.49999189    -0.10090
C198        C  0.24997338  0.39146234  0.49999101    -0.11640
C199        C  0.25058821  0.14146329  0.50001618    -0.10090
C200        C  0.25088786  0.10854663  0.50001604    -0.11640
C201        C  0.25015564  0.00000702  0.85854448    -0.10090
C202        C  0.25025309  0.00000871  0.89146114    -0.11640
C203        C  0.25055779  0.00000150  0.64146200    -0.10090
C204        C  0.25086724  0.00000257  0.60854540    -0.11640
C205        C  0.50000522  0.25000354  0.85854446    -0.10090
C206        C  0.50001595  0.25000397  0.89146120    -0.11640
C207        C  0.49999656  0.25000319  0.60854449    -0.10090
C208        C  0.49999541  0.25000275  0.64146120    -0.11640
C209        C  0.10855514  0.49999192  0.75002910    -0.10090
C210        C  0.14147260  0.49999138  0.75003889    -0.11640
C211        C  0.35855587  0.50001524  0.74996568    -0.10090
C212        C  0.39147186  0.50001408  0.74997459    -0.11640
C213        C  0.99998713  0.35854422  0.75001446    -0.10090
C214        C  0.99998957  0.39146095  0.75001370    -0.11640
C215        C  0.00001541  0.10854422  0.74998999    -0.09970
C216        C  0.50001085  0.14146095  0.74998991    -0.11640
O217        O  0.50001222  0.55187476  0.27969577    -0.68590
O218        O  0.00002403  0.94814559  0.27970756    -0.68810
O219        O  0.05188495  0.50002068  0.27968856    -0.68670
O220        O  0.44815677  0.99999984  0.27971275    -0.68680
O221        O  0.44813888  0.50001487  0.22031458    -0.68640
O222        O  0.05187411  0.99997502  0.22029054    -0.68660
O223        O  0.49997991  0.94813034  0.22030735    -0.68600
O224        O  0.00002650  0.55185963  0.22029556    -0.68780
V225        V  0.00001934  0.50000992  0.27854693     1.35240
V226        V  0.00000737  0.99999524  0.22145613     1.35170
C227        C  0.00001951  0.56937614  0.24999375     0.80650
C228        C  0.99999669  0.93062902  0.25000944     0.80700
C229        C  0.06939067  0.99999581  0.24998757     0.80570
C230        C  0.43064362  0.00000958  0.25001524     0.80540
O231        O  0.47030426  0.69813158  0.25000876    -0.68590
O232        O  0.47029207  0.80186107  0.24999263    -0.68810
O233        O  0.47030076  0.74998104  0.19813559    -0.68670
O234        O  0.47029607  0.75001186  0.30186550    -0.68680
O235        O  0.02969606  0.74999389  0.30186935    -0.68640
O236        O  0.02970077  0.75002378  0.19814076    -0.68660
O237        O  0.02969206  0.80187336  0.25002706    -0.68600
O238        O  0.02970428  0.69814437  0.24998249    -0.68780
V239        V  0.47145295  0.74999660  0.25000074     1.35240
V240        V  0.02854339  0.75000860  0.25000484     1.35170
C241        C  0.50000641  0.68062903  0.24999342     0.80650
C242        C  0.49999015  0.81937615  0.25001177     0.80700
C243        C  0.50000204  0.75000259  0.18062924     0.80570
C244        C  0.49999541  0.75000292  0.31937638     0.80540
O245        O  0.19815106  0.52969724  0.24998945    -0.68590
O246        O  0.30188025  0.52970979  0.25002538    -0.68810
O247        O  0.25004444  0.52970450  0.19814298    -0.68670
O248        O  0.24999955  0.52970290  0.30187203    -0.68680
O249        O  0.25009070  0.97030279  0.30186331    -0.68640
O250        O  0.25003596  0.97030429  0.19813347    -0.68660
O251        O  0.30189753  0.97030924  0.24998881    -0.68600
O252        O  0.19816847  0.97029752  0.25000738    -0.68780
V253        V  0.25001661  0.52854880  0.25000729     1.35240
V254        V  0.25003761  0.97145823  0.24999852     1.35170
C255        C  0.18065649  0.99999525  0.25002150     0.80650
C256        C  0.31940354  0.00001162  0.24998345     0.80700
C257        C  0.25009440  0.50000480  0.18062920     0.80570
C258        C  0.24998066  0.50000261  0.31937633     0.80540
O259        O  0.22030012  0.55186772  0.49999438    -0.68590
O260        O  0.22076034  0.94805677  0.00001051    -0.68810
O261        O  0.22059136  0.49992748  0.05186241    -0.68670
O262        O  0.22128461  0.99998859  0.44815752    -0.68680
O263        O  0.27969423  0.50001833  0.44813808    -0.68640
O264        O  0.27998932  0.00009414  0.05187454    -0.68660
O265        O  0.28068009  0.94811965  0.49998099    -0.68600
O266        O  0.27981969  0.55197550  0.00002619    -0.68780
V267        V  0.22174848  0.49991729  0.00000230     1.35240
V268        V  0.27883828  0.00010431  0.00000365     1.35170
C269        C  0.25006109  0.56938426  0.00001237     0.80650
C270        C  0.25050878  0.93063736  0.99999396     0.80700
C271        C  0.25028703  0.50001022  0.06937654     0.80570
C272        C  0.24999331  0.50000363  0.43062933     0.80540
O273        O  0.05187192  0.77969911  0.49999270    -0.68590
O274        O  0.44813776  0.77963696  0.00002175    -0.68810
O275        O  0.00001523  0.77970446  0.05187183    -0.68670
O276        O  0.49998997  0.77970314  0.44814255    -0.68680
O277        O  0.00001038  0.72030293  0.44813398    -0.68640
O278        O  0.50005538  0.72030426  0.05186313    -0.68660
O279        O  0.44813568  0.72030662  0.49998287    -0.68600
O280        O  0.05193914  0.72037252  0.00001444    -0.68780
V281        V  0.00000285  0.77854973  0.00000699     1.35240
V282        V  0.50007157  0.72145916  0.99999875     1.35170
C283        C  0.06941273  0.75009598  0.00000381     0.80650
C284        C  0.43066564  0.74991358  0.00000231     0.80700
C285        C  0.50003058  0.75000430  0.06937641     0.80570
C286        C  0.49999824  0.75000303  0.43062931     0.80540
O287        O  0.25018807  0.80188339  0.02969815    -0.68590
O288        O  0.24993228  0.69815405  0.02971020    -0.68810
O289        O  0.30191214  0.74990824  0.02970399    -0.68670
O290        O  0.19818314  0.75012883  0.02970435    -0.68680
O291        O  0.19815123  0.75006027  0.47030473    -0.68640
O292        O  0.30188023  0.74993266  0.47030351    -0.68660
O293        O  0.24994863  0.69813207  0.47031025    -0.68600
O294        O  0.25012993  0.80186150  0.47029801    -0.68780
V295        V  0.25004962  0.75001846  0.02854940     1.35240
V296        V  0.25001926  0.74999700  0.47145893     1.35170
C297        C  0.25028857  0.81938456  0.99999610     0.80650
C298        C  0.24988678  0.68063747  0.00001204     0.80700
C299        C  0.31941898  0.74985979  0.00000359     0.80570
C300        C  0.18067218  0.75016044  0.00000451     0.80540
C301        C  0.39149979  0.74986156  0.00000264    -0.10090
C302        C  0.35858450  0.74983568  0.00000318    -0.11640
C303        C  0.14150136  0.75017984  0.00000462    -0.10090
C304        C  0.10858316  0.75014952  0.00000435    -0.11640
C305        C  0.25048861  0.85855242  0.99999197    -0.10090
C306        C  0.25058829  0.89146915  0.99999117    -0.11640
C307        C  0.24986678  0.64146916  0.00001594    -0.10090
C308        C  0.24993024  0.60855236  0.00001598    -0.11640
C309        C  0.24998013  0.50000239  0.35854445    -0.10090
C310        C  0.24998902  0.50000295  0.39146121    -0.11640
C311        C  0.25018887  0.50000600  0.14146124    -0.10090
C312        C  0.25026492  0.50000817  0.10854460    -0.11640
C313        C  0.49999425  0.75000299  0.35854447    -0.10090
C314        C  0.49999515  0.75000302  0.39146121    -0.11640
C315        C  0.50001740  0.75000402  0.10854447    -0.10090
C316        C  0.50000642  0.75000329  0.14146118    -0.11640
C317        C  0.10856325  0.99999190  0.24998463    -0.10090
C318        C  0.14148289  0.99999136  0.25000090    -0.11640
C319        C  0.35856617  0.00001526  0.25000265    -0.10090
C320        C  0.39147996  0.00001409  0.25001823    -0.11640
C321        C  0.99998626  0.85854422  0.25001448    -0.10090
C322        C  0.99998805  0.89146095  0.25001361    -0.11640
C323        C  0.00001695  0.60854422  0.24998986    -0.09970
C324        C  0.50001173  0.64146095  0.24998982    -0.11640
O325        O  0.49999806  0.55187476  0.77969581    -0.68590
O326        O  0.00001216  0.94814556  0.77970789    -0.68810
O327        O  0.05186992  0.50002069  0.77971386    -0.68670
O328        O  0.44814695  0.99999983  0.77969218    -0.68680
O329        O  0.44815384  0.50001488  0.72028936    -0.68640
O330        O  0.05188395  0.99997503  0.72031208    -0.68660
O331        O  0.49999169  0.94813037  0.72030767    -0.68600
O332        O  0.00004062  0.55185964  0.72029560    -0.68780
V333        V  0.00000533  0.50000992  0.77854697     1.35240
V334        V  0.00001793  0.99999525  0.72145652     1.35170
C335        C  0.00001950  0.56937615  0.74999379     0.80650
C336        C  0.99999665  0.93062902  0.75000972     0.80700
C337        C  0.06939062  0.99999580  0.75001450     0.80570
C338        C  0.43064357  0.00000956  0.74998940     0.80540
O339        O  0.47030427  0.69813157  0.75001121    -0.68590
O340        O  0.47029206  0.80186107  0.74999490    -0.68810
O341        O  0.47029661  0.74998091  0.69813838    -0.68670
O342        O  0.47030021  0.75001197  0.80186828    -0.68680
O343        O  0.02970024  0.74999401  0.80186656    -0.68640
O344        O  0.02969665  0.75002366  0.69813798    -0.68660
O345        O  0.02969209  0.80187336  0.75002460    -0.68600
O346        O  0.02970431  0.69814437  0.74998020    -0.68780
V347        V  0.47145295  0.74999659  0.75000318     1.35240
V348        V  0.02854342  0.75000860  0.75000239     1.35170
C349        C  0.50000642  0.68062902  0.74999351     0.80650
C350        C  0.49999013  0.81937615  0.75001168     0.80700
C351        C  0.49999615  0.75000236  0.68062925     0.80570
C352        C  0.50000130  0.75000313  0.81937637     0.80540
O353        O  0.19815104  0.52969729  0.75005311    -0.68590
O354        O  0.30188020  0.52970984  0.74995982    -0.68810
O355        O  0.24996854  0.52970239  0.69814202    -0.68670
O356        O  0.25007535  0.52970509  0.80187106    -0.68680
O357        O  0.25000614  0.97030494  0.80186401    -0.68640
O358        O  0.25012038  0.97030210  0.69813421    -0.68660
O359        O  0.30189747  0.97030921  0.75004060    -0.68600
O360        O  0.19816843  0.97029749  0.74995797    -0.68780
V361        V  0.25001657  0.52854884  0.75000639     1.35240
V362        V  0.25003755  0.97145821  0.74999928     1.35170
C363        C  0.18065643  0.99999521  0.74998178     0.80650
C364        C  0.31940348  0.00001158  0.75002386     0.80700
C365        C  0.24997997  0.50000194  0.68062943     0.80570
C366        C  0.25009497  0.50000552  0.81937656     0.80540
O367        O  0.22042004  0.55177511  0.99999414    -0.68590
O368        O  0.22128017  0.94815872  0.50001109    -0.68810
O369        O  0.22029414  0.50001985  0.55186590    -0.68670
O370        O  0.22058958  0.99989644  0.94814380    -0.68680
O371        O  0.27999100  0.50012440  0.94813457    -0.68640
O372        O  0.28068444  0.99998789  0.55188898    -0.68660
O373        O  0.28016006  0.94823588  0.99998126    -0.68600
O374        O  0.27970012  0.55186965  0.50002618    -0.68780
V375        V  0.22144964  0.50000462  0.50000225     1.35240
V376        V  0.27954252  0.00000352  0.50000367     1.35170
C377        C  0.25000062  0.56937766  0.50001255     0.80650
C378        C  0.25096003  0.93062951  0.49999412     0.80700
C379        C  0.24999318  0.50000357  0.56937653     0.80570
C380        C  0.25028698  0.50001000  0.93062936     0.80540
O381        O  0.05186656  0.77977240  0.99999265    -0.68590
O382        O  0.44814279  0.77970715  0.50002179    -0.68810
O383        O  0.00002138  0.77970318  0.55187181    -0.68670
O384        O  0.49998379  0.77970437  0.94814247    -0.68680
O385        O  0.00008465  0.72030425  0.94813401    -0.68640
O386        O  0.49998109  0.72030298  0.55186321    -0.68660
O387        O  0.44820968  0.72023659  0.99998284    -0.68600
O388        O  0.05186481  0.72029927  0.50001448    -0.68780
V389        V  0.00000667  0.77854836  0.50000702     1.35240
V390        V  0.49999824  0.72145774  0.49999878     1.35170
C391        C  0.06937860  0.74999913  0.50000387     0.80650
C392        C  0.43063153  0.75000694  0.50000235     0.80700
C393        C  0.49999949  0.75000308  0.56937644     0.80570
C394        C  0.50002930  0.75000424  0.93062928     0.80540
O395        O  0.25010139  0.80187696  0.52969819    -0.68590
O396        O  0.24998080  0.69814736  0.52971045    -0.68810
O397        O  0.30188213  0.74997851  0.52970421    -0.68670
O398        O  0.19815297  0.75004541  0.52970440    -0.68680
O399        O  0.19818146  0.75014380  0.97030449    -0.68640
O400        O  0.30191020  0.74986251  0.97030349    -0.68660
O401        O  0.24990012  0.69813893  0.97031002    -0.68600
O402        O  0.25021662  0.80186801  0.97029798    -0.68780
V403        V  0.25002101  0.75001186  0.52854953     1.35240
V404        V  0.25004788  0.75000372  0.97145880     1.35170
C405        C  0.25022735  0.81937857  0.49999612     0.80650
C406        C  0.24996339  0.68063073  0.50001231     0.80700
C407        C  0.31938828  0.74995810  0.50000370     0.80570
C408        C  0.18064127  0.75004973  0.50000466     0.80540
C409        C  0.39146676  0.75000279  0.50000271    -0.10090
C410        C  0.35855224  0.74997883  0.50000327    -0.11640
C411        C  0.14146899  0.75002782  0.50000478    -0.10090
C412        C  0.10855006  0.75000332  0.50000447    -0.11640
C413        C  0.25056615  0.85854505  0.49999201    -0.10090
C414        C  0.25086407  0.89146176  0.49999128    -0.11640
C415        C  0.24997611  0.64146256  0.50001629    -0.10090
C416        C  0.24999703  0.60854580  0.50001629    -0.11640
C417        C  0.25018921  0.50000690  0.85854458    -0.10090
C418        C  0.25026494  0.50000859  0.89146125    -0.11640
C419        C  0.24997958  0.50000145  0.64146134    -0.10090
C420        C  0.24998875  0.50000232  0.60854461    -0.11640
C421        C  0.50000524  0.75000356  0.85854446    -0.10090
C422        C  0.50001597  0.75000400  0.89146120    -0.11640
C423        C  0.49999655  0.75000301  0.60854449    -0.10090
C424        C  0.49999541  0.75000270  0.64146120    -0.11640
C425        C  0.10856320  0.99999187  0.75001696    -0.10090
C426        C  0.14148284  0.99999131  0.75000115    -0.11640
C427        C  0.35856611  0.00001520  0.75000410    -0.10090
C428        C  0.39147991  0.00001405  0.74998738    -0.11640
C429        C  0.99998627  0.85854422  0.75001448    -0.10090
C430        C  0.99998804  0.89146095  0.75001378    -0.11640
C431        C  0.00001696  0.60854422  0.74998991    -0.09970
C432        C  0.50001174  0.64146095  0.74998989    -0.11640
O433        O  0.00001175  0.05187475  0.27969563    -0.68590
O434        O  0.50002452  0.44814557  0.27970770    -0.68810
O435        O  0.55188590  0.00002069  0.27969027    -0.68670
O436        O  0.94815587  0.49999983  0.27971490    -0.68680
O437        O  0.94814500  0.00001488  0.22031209    -0.68640
O438        O  0.55186804  0.49997503  0.22028849    -0.68660
O439        O  0.99997809  0.44813035  0.22030750    -0.68600
O440        O  0.50002832  0.05185965  0.22029541    -0.68780
V441        V  0.50001985  0.00000992  0.27854675     1.35240
V442        V  0.50000348  0.49999524  0.22145631     1.35170
C443        C  0.50001897  0.06937614  0.24999362     0.80650
C444        C  0.49999724  0.43062902  0.25000957     0.80700
C445        C  0.56938591  0.49999580  0.24998383     0.80570
C446        C  0.93063886  0.50000956  0.25001948     0.80540
O447        O  0.97030407  0.19813176  0.25000877    -0.68590
O448        O  0.97029226  0.30186126  0.24999261    -0.68810
O449        O  0.97030076  0.24998111  0.19813559    -0.68670
O450        O  0.97029606  0.25001194  0.30186550    -0.68680
O451        O  0.52969607  0.24999380  0.30186935    -0.68640
O452        O  0.52970077  0.25002367  0.19814076    -0.68660
O453        O  0.52969227  0.30187316  0.25002705    -0.68600
O454        O  0.52970408  0.19814417  0.24998250    -0.68780
V455        V  0.97145295  0.24999672  0.25000074     1.35240
V456        V  0.52854340  0.25000846  0.25000484     1.35170
C457        C  0.00000608  0.18062902  0.24999343     0.80650
C458        C  0.99999048  0.31937615  0.25001176     0.80700
C459        C  0.00000204  0.25000257  0.18062924     0.80570
C460        C  0.99999541  0.25000292  0.31937638     0.80540
O461        O  0.69816733  0.02969702  0.25004717    -0.68590
O462        O  0.80189650  0.02971010  0.24996791    -0.68810
O463        O  0.75000416  0.02970448  0.19814317    -0.68670
O464        O  0.75011960  0.02970296  0.30187257    -0.68680
O465        O  0.74997064  0.47030270  0.30186269    -0.68640
O466        O  0.75007622  0.47030430  0.19813326    -0.68660
O467        O  0.80188125  0.47030945  0.25004624    -0.68600
O468        O  0.69815223  0.47029722  0.24994960    -0.68780
V469        V  0.75003636  0.02854882  0.25000761     1.35240
V470        V  0.75001786  0.47145818  0.24999815     1.35170
C471        C  0.68064209  0.49999521  0.24996468     0.80650
C472        C  0.81938913  0.50001157  0.25004039     0.80700
C473        C  0.75005102  0.00000478  0.18062936     0.80570
C474        C  0.75021480  0.00000268  0.31937731     0.80540
O475        O  0.72129252  0.05185065  0.49999351    -0.68590
O476        O  0.72076018  0.44805685  0.00001053    -0.68810
O477        O  0.72058954  0.99992746  0.05186070    -0.68670
O478        O  0.72029425  0.49998935  0.44813851    -0.68680
O479        O  0.78068454  0.00001873  0.44811839    -0.68640
O480        O  0.77999115  0.50009416  0.05187278    -0.68660
O481        O  0.77968788  0.44813742  0.49998128    -0.68600
O482        O  0.77981983  0.05197541  0.00002619    -0.68780
V483        V  0.72174815  0.99991728  0.00000230     1.35240
V484        V  0.77883860  0.50010432  0.00000365     1.35170
C485        C  0.75006134  0.06938426  0.00001238     0.80650
C486        C  0.75050852  0.43063736  0.99999397     0.80700
C487        C  0.75028347  0.00001019  0.06937658     0.80570
C488        C  0.75096515  0.00000341  0.43062825     0.80540
O489        O  0.55187706  0.27969537  0.49999271    -0.68590
O490        O  0.94813776  0.27963694  0.00002176    -0.68810
O491        O  0.50001523  0.27970442  0.05187183    -0.68670
O492        O  0.99999228  0.27970345  0.44814253    -0.68680
O493        O  0.50000810  0.22030324  0.44813401    -0.68640
O494        O  0.00005536  0.22030422  0.05186313    -0.68660
O495        O  0.94813046  0.22031128  0.49998289    -0.68600
O496        O  0.55193913  0.22037246  0.00001443    -0.68780
V497        V  0.50000285  0.27854969  0.00000699     1.35240
V498        V  0.00007156  0.22145912  0.99999875     1.35170
C499        C  0.56941272  0.25009592  0.00000380     0.80650
C500        C  0.93066563  0.24991356  0.00000232     0.80700
C501        C  0.00003058  0.25000425  0.06937642     0.80570
C502        C  0.99999824  0.25000331  0.43062931     0.80540
O503        O  0.75018805  0.30188338  0.02969815    -0.68590
O504        O  0.74993227  0.19815405  0.02971020    -0.68810
O505        O  0.80191212  0.24990823  0.02970400    -0.68670
O506        O  0.69818313  0.25012882  0.02970435    -0.68680
O507        O  0.69815123  0.24994480  0.47030483    -0.68640
O508        O  0.80188027  0.25004757  0.47030358    -0.68660
O509        O  0.75010898  0.19813130  0.47031033    -0.68600
O510        O  0.74996964  0.30186076  0.47029806    -0.68780
V511        V  0.75004960  0.25001846  0.02854940     1.35240
V512        V  0.75001929  0.24999633  0.47145902     1.35170
C513        C  0.75028850  0.31938456  0.99999610     0.80650
C514        C  0.74988684  0.18063746  0.00001204     0.80700
C515        C  0.81941897  0.24985979  0.00000360     0.80570
C516        C  0.68067217  0.25016043  0.00000450     0.80540
C517        C  0.89149978  0.24986155  0.00000265    -0.10090
C518        C  0.85858449  0.24983567  0.00000319    -0.11640
C519        C  0.64150135  0.25017979  0.00000461    -0.10090
C520        C  0.60858315  0.25014946  0.00000434    -0.11640
C521        C  0.75048832  0.35855242  0.99999197    -0.10090
C522        C  0.75058786  0.39146915  0.99999119    -0.11640
C523        C  0.74986704  0.14146916  0.00001594    -0.10090
C524        C  0.74993066  0.10855236  0.00001598    -0.11640
C525        C  0.75055835  0.00000236  0.35854380    -0.10090
C526        C  0.75086752  0.00000279  0.39146044    -0.11640
C527        C  0.75015533  0.00000598  0.14146132    -0.10090
C528        C  0.75025310  0.00000815  0.10854470    -0.11640
C529        C  0.99999424  0.25000305  0.35854447    -0.10090
C530        C  0.99999515  0.25000320  0.39146122    -0.11640
C531        C  0.00001740  0.25000397  0.10854447    -0.10090
C532        C  0.00000642  0.25000326  0.14146118    -0.11640
C533        C  0.60855517  0.49999186  0.24997251    -0.10090
C534        C  0.64147263  0.49999130  0.24996318    -0.11640
C535        C  0.85855590  0.50001519  0.25004107    -0.10090
C536        C  0.89147189  0.50001404  0.25003102    -0.11640
C537        C  0.49998714  0.35854422  0.25001449    -0.10090
C538        C  0.49998959  0.39146095  0.25001369    -0.11640
C539        C  0.50001542  0.10854422  0.24998978    -0.09970
C540        C  0.00001088  0.14146094  0.24998981    -0.11640
O541        O  0.99999988  0.05187478  0.77969596    -0.68590
O542        O  0.50001036  0.44814557  0.77970774    -0.68810
O543        O  0.55187597  0.00002069  0.77971180    -0.68670
O544        O  0.94814085  0.49999984  0.77968968    -0.68680
O545        O  0.94815472  0.00001489  0.72029152    -0.68640
O546        O  0.55188302  0.49997504  0.72031379    -0.68660
O547        O  0.99999220  0.44813036  0.72030752    -0.68600
O548        O  0.50004011  0.05185962  0.72029575    -0.68780
V549        V  0.50000920  0.00000992  0.77854715     1.35240
V550        V  0.50001744  0.49999525  0.72145634     1.35170
C551        C  0.50001892  0.06937614  0.74999392     0.80650
C552        C  0.49999722  0.43062902  0.75000959     0.80700
C553        C  0.56938588  0.49999583  0.75001824     0.80570
C554        C  0.93063883  0.50000958  0.74998516     0.80540
O555        O  0.97030409  0.19813176  0.75001120    -0.68590
O556        O  0.97029227  0.30186125  0.74999491    -0.68810
O557        O  0.97029664  0.24998099  0.69813838    -0.68670
O558        O  0.97030022  0.25001205  0.80186828    -0.68680
O559        O  0.52970020  0.24999391  0.80186656    -0.68640
O560        O  0.52969661  0.25002355  0.69813798    -0.68660
O561        O  0.52969226  0.30187316  0.75002461    -0.68600
O562        O  0.52970405  0.19814417  0.74998020    -0.68780
V563        V  0.97145297  0.24999672  0.75000318     1.35240
V564        V  0.52854338  0.25000846  0.75000239     1.35170
C565        C  0.00000610  0.18062902  0.74999350     0.80650
C566        C  0.99999049  0.31937615  0.75001169     0.80700
C567        C  0.99999618  0.25000236  0.68062925     0.80570
C568        C  0.00000130  0.25000312  0.81937637     0.80540
O569        O  0.69816726  0.02969699  0.74999528    -0.68590
O570        O  0.80189645  0.02971007  0.75001720    -0.68810
O571        O  0.75008858  0.02970227  0.69814135    -0.68670
O572        O  0.75003505  0.02970513  0.80187080    -0.68680
O573        O  0.75004643  0.47030489  0.80186420    -0.68640
O574        O  0.75000034  0.47030219  0.69813473    -0.68660
O575        O  0.80188123  0.47030949  0.74998311    -0.68600
O576        O  0.69815218  0.47029727  0.75001569    -0.68780
V577        V  0.75003630  0.02854879  0.75000598     1.35240
V578        V  0.75001782  0.47145823  0.74999959     1.35170
C579        C  0.68064206  0.49999527  0.75003861     0.80650
C580        C  0.81938909  0.50001162  0.74996694     0.80700
C581        C  0.75021410  0.00000187  0.68062843     0.80570
C582        C  0.75005155  0.00000559  0.81937639     0.80540
O583        O  0.72042018  0.05177519  0.99999415    -0.68590
O584        O  0.72028788  0.44814139  0.50001020    -0.68810
O585        O  0.72128453  0.00002085  0.55184691    -0.68670
O586        O  0.72059141  0.49989642  0.94814209    -0.68680
O587        O  0.77998915  0.00012442  0.94813279    -0.68640
O588        O  0.77969419  0.49998813  0.55186926    -0.68660
O589        O  0.78015990  0.44823579  0.99998128    -0.68600
O590        O  0.78069245  0.05188760  0.50002651    -0.68780
V591        V  0.72245222  0.00000474  0.50000226     1.35240
V592        V  0.77854012  0.50000344  0.50000365     1.35170
C593        C  0.75097633  0.06937882  0.50001224     0.80650
C594        C  0.74998446  0.43063045  0.49999378     0.80700
C595        C  0.75096502  0.00000396  0.56937763     0.80570
C596        C  0.75028340  0.00001004  0.93062931     0.80540
O597        O  0.55186656  0.27977234  0.99999264    -0.68590
O598        O  0.94814802  0.27971182  0.50002181    -0.68810
O599        O  0.50002369  0.27970349  0.55187183    -0.68670
O600        O  0.99998379  0.27970433  0.94814247    -0.68680
O601        O  0.50008462  0.22030421  0.94813400    -0.68640
O602        O  0.99997881  0.22030328  0.55186318    -0.68660
O603        O  0.94820966  0.22023656  0.99998285    -0.68600
O604        O  0.55185970  0.22029553  0.50001449    -0.68780
V605        V  0.50001007  0.27854874  0.50000702     1.35240
V606        V  0.99999488  0.22145811  0.49999878     1.35170
C607        C  0.56937862  0.24999166  0.50000390     0.80650
C608        C  0.93063155  0.25001544  0.50000239     0.80700
C609        C  0.99999951  0.25000335  0.56937644     0.80570
C610        C  0.00002929  0.25000421  0.93062929     0.80540
O611        O  0.74994108  0.30187615  0.52969826    -0.68590
O612        O  0.75014116  0.19814667  0.52971051    -0.68810
O613        O  0.80188211  0.25009344  0.52970428    -0.68670
O614        O  0.69815302  0.24992993  0.52970450    -0.68680
O615        O  0.69818145  0.25014380  0.97030449    -0.68640
O616        O  0.80191020  0.24986251  0.97030350    -0.68660
O617        O  0.74990012  0.19813892  0.97031002    -0.68600
O618        O  0.75021660  0.30186800  0.97029798    -0.68780
V619        V  0.75002103  0.25001119  0.52854961     1.35240
V620        V  0.75004787  0.25000371  0.97145880     1.35170
C621        C  0.74994981  0.31937744  0.49999614     0.80650
C622        C  0.75024100  0.18062967  0.50001234     0.80700
C623        C  0.81938830  0.25007200  0.50000379     0.80570
C624        C  0.68064129  0.24993613  0.50000477     0.80540
C625        C  0.89146677  0.25002840  0.50000280    -0.10090
C626        C  0.85855226  0.25005571  0.50000339    -0.11640
C627        C  0.64146900  0.24995243  0.50000491    -0.10090
C628        C  0.60855008  0.24997910  0.50000456    -0.11640
C629        C  0.74995420  0.35854559  0.49999189    -0.10090
C630        C  0.74997342  0.39146234  0.49999102    -0.11640
C631        C  0.75058820  0.14146329  0.50001618    -0.10090
C632        C  0.75088785  0.10854663  0.50001604    -0.11640
C633        C  0.75015563  0.00000702  0.85854448    -0.10090
C634        C  0.75025308  0.00000871  0.89146114    -0.11640
C635        C  0.75055780  0.00000151  0.64146200    -0.10090
C636        C  0.75086726  0.00000257  0.60854540    -0.11640
C637        C  0.00000524  0.25000355  0.85854446    -0.10090
C638        C  0.00001596  0.25000397  0.89146120    -0.11640
C639        C  0.99999659  0.25000319  0.60854449    -0.10090
C640        C  0.99999545  0.25000275  0.64146120    -0.11640
C641        C  0.60855514  0.49999192  0.75002909    -0.10090
C642        C  0.64147260  0.49999138  0.75003887    -0.11640
C643        C  0.85855587  0.50001525  0.74996568    -0.10090
C644        C  0.89147186  0.50001408  0.74997459    -0.11640
C645        C  0.49998712  0.35854422  0.75001446    -0.10090
C646        C  0.49998957  0.39146095  0.75001369    -0.11640
C647        C  0.50001538  0.10854422  0.74998999    -0.09970
C648        C  0.00001089  0.14146095  0.74998991    -0.11640
O649        O  0.00001222  0.55187476  0.27969578    -0.68590
O650        O  0.50002404  0.94814559  0.27970756    -0.68810
O651        O  0.55188495  0.50002068  0.27968856    -0.68670
O652        O  0.94815677  0.99999984  0.27971275    -0.68680
O653        O  0.94813888  0.50001488  0.22031458    -0.68640
O654        O  0.55187411  0.99997503  0.22029054    -0.68660
O655        O  0.99997991  0.94813034  0.22030735    -0.68600
O656        O  0.50002650  0.55185963  0.22029555    -0.68780
V657        V  0.50001934  0.50000992  0.27854693     1.35240
V658        V  0.50000737  0.99999524  0.22145613     1.35170
C659        C  0.50001950  0.56937614  0.24999375     0.80650
C660        C  0.49999670  0.93062902  0.25000944     0.80700
C661        C  0.56939067  0.99999581  0.24998757     0.80570
C662        C  0.93064362  0.00000958  0.25001524     0.80540
O663        O  0.97030427  0.69813158  0.25000875    -0.68590
O664        O  0.97029206  0.80186107  0.24999262    -0.68810
O665        O  0.97030076  0.74998104  0.19813559    -0.68670
O666        O  0.97029606  0.75001185  0.30186550    -0.68680
O667        O  0.52969607  0.74999389  0.30186935    -0.68640
O668        O  0.52970076  0.75002377  0.19814076    -0.68660
O669        O  0.52969207  0.80187335  0.25002706    -0.68600
O670        O  0.52970427  0.69814436  0.24998249    -0.68780
V671        V  0.97145295  0.74999660  0.25000073     1.35240
V672        V  0.52854339  0.75000860  0.25000483     1.35170
C673        C  0.00000642  0.68062903  0.24999342     0.80650
C674        C  0.99999013  0.81937615  0.25001177     0.80700
C675        C  0.00000204  0.75000259  0.18062924     0.80570
C676        C  0.99999540  0.75000292  0.31937638     0.80540
O677        O  0.69815106  0.52969724  0.24998945    -0.68590
O678        O  0.80188025  0.52970980  0.25002538    -0.68810
O679        O  0.75004444  0.52970450  0.19814298    -0.68670
O680        O  0.74999955  0.52970290  0.30187203    -0.68680
O681        O  0.75009070  0.97030279  0.30186331    -0.68640
O682        O  0.75003595  0.97030430  0.19813347    -0.68660
O683        O  0.80189753  0.97030924  0.24998881    -0.68600
O684        O  0.69816847  0.97029752  0.25000738    -0.68780
V685        V  0.75001661  0.52854880  0.25000729     1.35240
V686        V  0.75003761  0.97145824  0.24999852     1.35170
C687        C  0.68065649  0.99999526  0.25002150     0.80650
C688        C  0.81940354  0.00001162  0.24998345     0.80700
C689        C  0.75009441  0.50000480  0.18062920     0.80570
C690        C  0.74998066  0.50000262  0.31937633     0.80540
O691        O  0.72030015  0.55186772  0.49999439    -0.68590
O692        O  0.72076034  0.94805677  0.00001052    -0.68810
O693        O  0.72059136  0.49992748  0.05186241    -0.68670
O694        O  0.72128462  0.99998858  0.44815753    -0.68680
O695        O  0.77969426  0.50001833  0.44813808    -0.68640
O696        O  0.77998932  0.00009414  0.05187454    -0.68660
O697        O  0.78068011  0.94811965  0.49998099    -0.68600
O698        O  0.77981968  0.55197550  0.00002618    -0.68780
V699        V  0.72174847  0.49991728  0.00000230     1.35240
V700        V  0.77883828  0.00010431  0.00000364     1.35170
C701        C  0.75006108  0.56938426  0.00001237     0.80650
C702        C  0.75050878  0.93063736  0.99999395     0.80700
C703        C  0.75028703  0.50001022  0.06937654     0.80570
C704        C  0.74999333  0.50000363  0.43062933     0.80540
O705        O  0.55187192  0.77969912  0.49999270    -0.68590
O706        O  0.94813776  0.77963696  0.00002176    -0.68810
O707        O  0.50001522  0.77970446  0.05187183    -0.68670
O708        O  0.99998997  0.77970314  0.44814255    -0.68680
O709        O  0.50001039  0.72030293  0.44813398    -0.68640
O710        O  0.00005538  0.72030426  0.05186313    -0.68660
O711        O  0.94813568  0.72030661  0.49998288    -0.68600
O712        O  0.55193914  0.72037252  0.00001444    -0.68780
V713        V  0.50000285  0.77854973  0.00000699     1.35240
V714        V  0.00007157  0.72145916  0.99999875     1.35170
C715        C  0.56941272  0.75009598  0.00000380     0.80650
C716        C  0.93066564  0.74991357  0.00000231     0.80700
C717        C  0.00003059  0.75000429  0.06937642     0.80570
C718        C  0.99999823  0.75000303  0.43062931     0.80540
O719        O  0.75018808  0.80188339  0.02969815    -0.68590
O720        O  0.74993227  0.69815405  0.02971020    -0.68810
O721        O  0.80191214  0.74990823  0.02970399    -0.68670
O722        O  0.69818314  0.75012883  0.02970435    -0.68680
O723        O  0.69815124  0.75006028  0.47030473    -0.68640
O724        O  0.80188023  0.74993265  0.47030351    -0.68660
O725        O  0.74994863  0.69813207  0.47031025    -0.68600
O726        O  0.75012994  0.80186150  0.47029801    -0.68780
V727        V  0.75004962  0.75001846  0.02854940     1.35240
V728        V  0.75001927  0.74999700  0.47145894     1.35170
C729        C  0.75028857  0.81938456  0.99999610     0.80650
C730        C  0.74988677  0.68063747  0.00001204     0.80700
C731        C  0.81941898  0.74985979  0.00000359     0.80570
C732        C  0.68067218  0.75016045  0.00000451     0.80540
C733        C  0.89149979  0.74986155  0.00000264    -0.10090
C734        C  0.85858450  0.74983567  0.00000318    -0.11640
C735        C  0.64150136  0.75017984  0.00000462    -0.10090
C736        C  0.60858316  0.75014953  0.00000435    -0.11640
C737        C  0.75048861  0.85855242  0.99999197    -0.10090
C738        C  0.75058829  0.89146915  0.99999117    -0.11640
C739        C  0.74986676  0.64146916  0.00001594    -0.10090
C740        C  0.74993022  0.60855236  0.00001598    -0.11640
C741        C  0.74998014  0.50000239  0.35854445    -0.10090
C742        C  0.74998903  0.50000295  0.39146121    -0.11640
C743        C  0.75018888  0.50000601  0.14146124    -0.10090
C744        C  0.75026492  0.50000817  0.10854460    -0.11640
C745        C  0.99999423  0.75000299  0.35854447    -0.10090
C746        C  0.99999514  0.75000302  0.39146122    -0.11640
C747        C  0.00001741  0.75000402  0.10854447    -0.10090
C748        C  0.00000643  0.75000329  0.14146118    -0.11640
C749        C  0.60856325  0.99999191  0.24998463    -0.10090
C750        C  0.64148289  0.99999137  0.25000090    -0.11640
C751        C  0.85856617  0.00001526  0.25000265    -0.10090
C752        C  0.89147996  0.00001409  0.25001823    -0.11640
C753        C  0.49998628  0.85854422  0.25001448    -0.10090
C754        C  0.49998806  0.89146095  0.25001361    -0.11640
C755        C  0.50001693  0.60854422  0.24998986    -0.09970
C756        C  0.00001174  0.64146095  0.24998982    -0.11640
O757        O  0.99999807  0.55187476  0.77969581    -0.68590
O758        O  0.50001216  0.94814556  0.77970788    -0.68810
O759        O  0.55186992  0.50002070  0.77971386    -0.68670
O760        O  0.94814695  0.99999984  0.77969218    -0.68680
O761        O  0.94815384  0.50001489  0.72028936    -0.68640
O762        O  0.55188394  0.99997503  0.72031208    -0.68660
O763        O  0.99999169  0.94813037  0.72030767    -0.68600
O764        O  0.50004061  0.55185964  0.72029560    -0.68780
V765        V  0.50000533  0.50000992  0.77854697     1.35240
V766        V  0.50001793  0.99999525  0.72145652     1.35170
C767        C  0.50001949  0.56937614  0.74999379     0.80650
C768        C  0.49999665  0.93062902  0.75000972     0.80700
C769        C  0.56939062  0.99999581  0.75001450     0.80570
C770        C  0.93064357  0.00000957  0.74998940     0.80540
O771        O  0.97030430  0.69813157  0.75001121    -0.68590
O772        O  0.97029208  0.80186106  0.74999490    -0.68810
O773        O  0.97029664  0.74998090  0.69813838    -0.68670
O774        O  0.97030023  0.75001197  0.80186828    -0.68680
O775        O  0.52970021  0.74999401  0.80186655    -0.68640
O776        O  0.52969662  0.75002365  0.69813797    -0.68660
O777        O  0.52969206  0.80187335  0.75002460    -0.68600
O778        O  0.52970428  0.69814437  0.74998020    -0.68780
V779        V  0.97145298  0.74999659  0.75000318     1.35240
V780        V  0.52854339  0.75000860  0.75000238     1.35170
C781        C  0.00000646  0.68062902  0.74999351     0.80650
C782        C  0.99999015  0.81937615  0.75001168     0.80700
C783        C  0.99999618  0.75000236  0.68062925     0.80570
C784        C  0.00000132  0.75000313  0.81937637     0.80540
O785        O  0.69815104  0.52969730  0.75005310    -0.68590
O786        O  0.80188020  0.52970985  0.74995982    -0.68810
O787        O  0.74996856  0.52970239  0.69814202    -0.68670
O788        O  0.75007535  0.52970509  0.80187106    -0.68680
O789        O  0.75000614  0.97030494  0.80186401    -0.68640
O790        O  0.75012038  0.97030211  0.69813421    -0.68660
O791        O  0.80189747  0.97030921  0.75004060    -0.68600
O792        O  0.69816843  0.97029749  0.74995797    -0.68780
V793        V  0.75001658  0.52854885  0.75000639     1.35240
V794        V  0.75003755  0.97145821  0.74999928     1.35170
C795        C  0.68065643  0.99999522  0.74998177     0.80650
C796        C  0.81940349  0.00001158  0.75002386     0.80700
C797        C  0.74997999  0.50000195  0.68062943     0.80570
C798        C  0.75009496  0.50000552  0.81937656     0.80540
O799        O  0.72042003  0.55177510  0.99999414    -0.68590
O800        O  0.72128019  0.94815872  0.50001109    -0.68810
O801        O  0.72029419  0.50001985  0.55186591    -0.68670
O802        O  0.72058957  0.99989644  0.94814380    -0.68680
O803        O  0.77999099  0.50012440  0.94813456    -0.68640
O804        O  0.78068445  0.99998789  0.55188898    -0.68660
O805        O  0.78016006  0.94823588  0.99998126    -0.68600
O806        O  0.77970015  0.55186966  0.50002618    -0.68780
V807        V  0.72144968  0.50000462  0.50000226     1.35240
V808        V  0.77954252  0.00000353  0.50000366     1.35170
C809        C  0.75000065  0.56937766  0.50001255     0.80650
C810        C  0.75096005  0.93062951  0.49999412     0.80700
C811        C  0.74999323  0.50000357  0.56937653     0.80570
C812        C  0.75028697  0.50001000  0.93062936     0.80540
O813        O  0.55186656  0.77977240  0.99999265    -0.68590
O814        O  0.94814279  0.77970715  0.50002179    -0.68810
O815        O  0.50002138  0.77970318  0.55187180    -0.68670
O816        O  0.99998379  0.77970436  0.94814247    -0.68680
O817        O  0.50008464  0.72030425  0.94813401    -0.68640
O818        O  0.99998110  0.72030297  0.55186321    -0.68660
O819        O  0.94820968  0.72023658  0.99998284    -0.68600
O820        O  0.55186481  0.72029927  0.50001448    -0.68780
V821        V  0.50000667  0.77854836  0.50000702     1.35240
V822        V  0.99999824  0.72145774  0.49999878     1.35170
C823        C  0.56937860  0.74999913  0.50000387     0.80650
C824        C  0.93063154  0.75000693  0.50000236     0.80700
C825        C  0.99999950  0.75000307  0.56937644     0.80570
C826        C  0.00002931  0.75000423  0.93062929     0.80540
O827        O  0.75010139  0.80187696  0.52969819    -0.68590
O828        O  0.74998080  0.69814736  0.52971045    -0.68810
O829        O  0.80188213  0.74997851  0.52970421    -0.68670
O830        O  0.69815297  0.75004541  0.52970440    -0.68680
O831        O  0.69818146  0.75014380  0.97030449    -0.68640
O832        O  0.80191020  0.74986250  0.97030349    -0.68660
O833        O  0.74990011  0.69813892  0.97031002    -0.68600
O834        O  0.75021662  0.80186801  0.97029798    -0.68780
V835        V  0.75002101  0.75001186  0.52854953     1.35240
V836        V  0.75004788  0.75000372  0.97145880     1.35170
C837        C  0.75022736  0.81937857  0.49999612     0.80650
C838        C  0.74996339  0.68063073  0.50001231     0.80700
C839        C  0.81938829  0.74995810  0.50000371     0.80570
C840        C  0.68064127  0.75004973  0.50000466     0.80540
C841        C  0.89146676  0.75000278  0.50000272    -0.10090
C842        C  0.85855224  0.74997882  0.50000328    -0.11640
C843        C  0.64146899  0.75002782  0.50000478    -0.10090
C844        C  0.60855006  0.75000332  0.50000448    -0.11640
C845        C  0.75056616  0.85854505  0.49999201    -0.10090
C846        C  0.75086409  0.89146176  0.49999129    -0.11640
C847        C  0.74997612  0.64146256  0.50001629    -0.10090
C848        C  0.74999705  0.60854580  0.50001629    -0.11640
C849        C  0.75018920  0.50000690  0.85854458    -0.10090
C850        C  0.75026493  0.50000859  0.89146125    -0.11640
C851        C  0.74997963  0.50000145  0.64146134    -0.10090
C852        C  0.74998881  0.50000233  0.60854461    -0.11640
C853        C  0.00000527  0.75000356  0.85854446    -0.10090
C854        C  0.00001599  0.75000399  0.89146120    -0.11640
C855        C  0.99999658  0.75000301  0.60854449    -0.10090
C856        C  0.99999544  0.75000269  0.64146120    -0.11640
C857        C  0.60856320  0.99999188  0.75001696    -0.10090
C858        C  0.64148284  0.99999131  0.75000115    -0.11640
C859        C  0.85856611  0.00001521  0.75000410    -0.10090
C860        C  0.89147991  0.00001406  0.74998738    -0.11640
C861        C  0.49998625  0.85854422  0.75001448    -0.10090
C862        C  0.49998803  0.89146095  0.75001378    -0.11640
C863        C  0.50001694  0.60854422  0.74998990    -0.09970
C864        C  0.00001177  0.64146095  0.74998989    -0.11640
loop_ 
_geom_bond_atom_site_label_1 
_geom_bond_atom_site_label_2 
_geom_bond_distance 
_geom_bond_site_symmetry_2 
_ccdc_geom_bond_type 
O1          V441   1.900       .  S
O1          C443   1.263       .  A
O2          V225   1.900       .  S
O2           C12   1.263   1_455  A
O3            V9   1.900       .  S
O3          C229   1.263   1_545  A
O4          V657   1.900       .  S
O4           C14   1.263       .  A
O5          V658   1.900   1_545  S
O5          C230   1.263       .  A
O6           V10   1.900       .  S
O6           C13   1.263       .  A
O7          V442   1.900       .  S
O7          C444   1.263       .  A
O8          V226   1.900   1_545  S
O8           C11   1.263       .  A
V9          O433   1.900       .  S
V9          O218   1.900   1_545  S
V9          O652   1.900   1_445  S
V9          V226   2.091   1_545  T
V10         O653   1.900   1_455  S
V10         O439   1.900   1_455  S
V10         O224   1.900       .  S
V10         V225   2.091       .  T
C11         O433   1.263       .  A
C11         C107   1.434       .  S
C12         O439   1.263       .  A
C12         C106   1.434       .  S
C13         O219   1.263       .  A
C13         C101   1.434       .  S
C14         O221   1.263       .  A
C14         C104   1.434       .  S
O15          V23   1.900       .  S
O15          C25   1.263       .  A
O16          V23   1.900       .  S
O16          C26   1.263       .  A
O17          V23   1.900       .  S
O17          C27   1.263       .  A
O18          V23   1.900       .  S
O18          C28   1.263       .  A
O19          V24   1.900       .  S
O19         C460   1.263   1_455  A
O20          V24   1.900       .  S
O20         C459   1.263       .  A
O21          V24   1.900       .  S
O21         C458   1.263   1_455  A
O22          V24   1.900       .  S
O22         C457   1.263       .  A
V23         V456   2.091       .  T
V24         V455   2.091   1_455  T
C25         O454   1.263       .  A
C25         C108   1.434       .  S
C26         O453   1.263       .  A
C26         C537   1.434       .  S
C27         O452   1.263       .  A
C27         C100   1.434       .  S
C28         O451   1.263       .  A
C28          C97   1.434       .  S
O29          V37   1.900       .  S
O29         C255   1.263   1_545  A
O30          V37   1.900       .  S
O30         C256   1.263       .  A
O31          V37   1.900       .  S
O31          C41   1.263       .  A
O32          V37   1.900       .  S
O32          C42   1.263       .  A
O33          V38   1.900       .  S
O33         C258   1.263       .  A
O34          V38   1.900       .  S
O34         C257   1.263       .  A
O35          V38   1.900       .  S
O35          C40   1.263       .  A
O36          V38   1.900       .  S
O36          C39   1.263       .  A
V37         V254   2.091   1_545  T
V38         V253   2.091       .  T
C39         O245   1.263       .  A
C39         C102   1.434       .  S
C40         O246   1.263       .  A
C40         C103   1.434       .  S
C41         O250   1.263   1_545  A
C41          C95   1.434       .  S
C42         O249   1.263   1_545  A
C42          C93   1.434       .  S
O43         V159   1.899       .  S
O43         C161   1.262       .  A
O44         V267   1.900       .  S
O44          C54   1.263   1_554  A
O45          V51   1.900       .  S
O45          C55   1.263   1_565  A
O46         V375   1.900       .  S
O46         C272   1.263       .  A
O47         V376   1.901       .  S
O47          C56   1.263       .  A
O48          V52   1.900       .  S
O48         C271   1.263       .  A
O49         V160   1.900       .  S
O49         C162   1.263       .  A
O50         V268   1.900       .  S
O50          C53   1.263       .  A
V51         O151   1.900   1_564  S
V51         O260   1.900       .  S
V51         O370   1.900   1_554  S
V51         V268   2.091   1_565  T
V52         O371   1.900   1_554  S
V52         O157   1.900   1_554  S
V52         O266   1.900       .  S
V52         V267   2.091       .  T
C53         O151   1.263   1_554  A
C53          C92   1.434       .  S
C54         O157   1.263       .  A
C54          C90   1.434       .  S
C55         O264   1.263       .  A
C55          C96   1.434       .  S
C56         O262   1.262   1_545  A
C56          C94   1.434       .  S
O57         V173   1.900       .  S
O57         C175   1.263       .  A
O58         V497   1.900       .  S
O58          C68   1.263       .  A
O59          V65   1.900       .  S
O59         C501   1.263       .  A
O60         V605   1.900       .  S
O60          C70   1.263       .  A
O61         V606   1.900   1_455  S
O61         C502   1.263   1_455  A
O62          V66   1.900   1_554  S
O62          C69   1.263       .  A
O63         V174   1.900       .  S
O63         C176   1.263       .  A
O64         V498   1.900   1_554  S
O64          C67   1.263       .  A
V65         O165   1.900   1_554  S
V65         O490   1.900   1_455  S
V65         O600   1.900   1_454  S
V65         V498   2.091   1_554  T
V66         O601   1.900       .  S
V66         O171   1.900       .  S
V66         O496   1.900   1_556  S
V66         V497   2.091   1_556  T
C67         O165   1.263   1_554  A
C67          C88   1.435       .  S
C68         O171   1.263   1_554  A
C68          C85   1.434       .  S
C69         O491   1.263       .  A
C69          C99   1.434       .  S
C70         O493   1.263       .  A
C70          C98   1.434       .  S
O71          V79   1.900       .  S
O71          C81   1.263   1_554  A
O72          V79   1.900       .  S
O72          C82   1.263       .  A
O73          V79   1.900       .  S
O73          C83   1.263       .  A
O74          V79   1.900       .  S
O74          C84   1.263       .  A
O75          V80   1.900       .  S
O75         C192   1.263       .  A
O76          V80   1.900       .  S
O76         C191   1.263       .  A
O77          V80   1.900       .  S
O77         C190   1.263       .  A
O78          V80   1.900       .  S
O78         C189   1.263       .  A
V79         V188   2.091   1_554  T
V80         V187   2.091       .  T
C81         O186   1.263       .  A
C81          C89   1.434       .  S
C82         O185   1.263   1_554  A
C82          C91   1.434       .  S
C83         O184   1.263   1_554  A
C83          C86   1.434       .  S
C84         O183   1.263   1_554  A
C84          C87   1.435       .  S
C85          C86   1.205       .  T
C87          C88   1.206       .  T
C89          C90   1.206       .  T
C91          C92   1.206       .  T
C93          C94   1.206       .  T
C95          C96   1.205       .  T
C97          C98   1.205       .  T
C99         C100   1.205       .  T
C101        C102   1.206       .  T
C103        C104   1.205       .  T
C105        C458   1.434       .  S
C105        C106   1.205       .  T
C107        C540   1.205       .  T
C108        C539   1.205       .  T
O109        V549   1.900       .  S
O109        C551   1.263       .  A
O110        V333   1.900       .  S
O110        C120   1.263   1_455  A
O111        V117   1.900       .  S
O111        C337   1.263   1_545  A
O112        V765   1.900       .  S
O112        C122   1.263       .  A
O113        V766   1.900   1_545  S
O113        C338   1.263       .  A
O114        V118   1.900       .  S
O114        C121   1.263       .  A
O115        V550   1.900       .  S
O115        C552   1.263       .  A
O116        V334   1.900   1_545  S
O116        C119   1.263       .  A
V117        O541   1.900   1_455  S
V117        O326   1.900   1_545  S
V117        O760   1.900   1_445  S
V117        V334   2.091   1_545  T
V118        O761   1.900   1_455  S
V118        O547   1.900   1_455  S
V118        O332   1.900       .  S
V118        V333   2.091       .  T
C119        O541   1.263   1_455  A
C119        C215   1.434       .  S
C120        O547   1.263       .  A
C120        C214   1.434       .  S
C121        O327   1.263       .  A
C121        C209   1.434       .  S
C122        O329   1.263       .  A
C122        C212   1.434       .  S
O123        V131   1.900       .  S
O123        C133   1.263       .  A
O124        V131   1.900       .  S
O124        C134   1.263       .  A
O125        V131   1.900       .  S
O125        C135   1.263       .  A
O126        V131   1.900       .  S
O126        C136   1.263       .  A
O127        V132   1.900       .  S
O127        C568   1.263       .  A
O128        V132   1.900       .  S
O128        C567   1.263   1_455  A
O129        V132   1.900       .  S
O129        C566   1.263   1_455  A
O130        V132   1.900       .  S
O130        C565   1.263       .  A
V131        V564   2.091       .  T
V132        V563   2.091   1_455  T
C133        O562   1.263       .  A
C133        C216   1.434       .  S
C134        O561   1.263       .  A
C134        C645   1.434       .  S
C135        O560   1.263       .  A
C135        C208   1.434       .  S
C136        O559   1.263       .  A
C136        C205   1.434       .  S
O137        V145   1.900       .  S
O137        C363   1.263   1_545  A
O138        V145   1.900       .  S
O138        C364   1.263       .  A
O139        V145   1.900       .  S
O139        C149   1.263       .  A
O140        V145   1.900       .  S
O140        C150   1.263       .  A
O141        V146   1.900       .  S
O141        C366   1.263       .  A
O142        V146   1.900       .  S
O142        C365   1.263       .  A
O143        V146   1.900       .  S
O143        C148   1.263       .  A
O144        V146   1.900       .  S
O144        C147   1.263       .  A
V145        V362   2.091   1_545  T
V146        V361   2.091       .  T
C147        O353   1.263       .  A
C147        C210   1.434       .  S
C148        O354   1.263       .  A
C148        C211   1.434       .  S
C149        O358   1.263   1_545  A
C149        C203   1.434       .  S
C150        O357   1.263   1_545  A
C150        C201   1.434       .  S
O152        V375   1.900       .  S
O152        C162   1.263       .  A
O153        V159   1.899       .  S
O153        C163   1.262       .  A
O154        V267   1.900   1_556  S
O154        C380   1.263       .  A
O155        V268   1.900   1_556  S
O155        C164   1.263       .  A
O156        V160   1.900       .  S
O156        C379   1.263       .  A
O158        V376   1.901       .  S
O158        C161   1.263       .  A
V159        O368   1.899   1_545  S
V159        O262   1.899   1_545  S
V159        V376   2.091       .  T
V160        O263   1.900       .  S
V160        O374   1.900       .  S
V160        V375   2.091       .  T
C161        C200   1.434       .  S
C162        C198   1.434       .  S
C163        O372   1.263   1_545  A
C163        C204   1.434       .  S
C164        O370   1.263   1_545  A
C164        C202   1.434       .  S
O166        V605   1.900       .  S
O166        C176   1.263       .  A
O167        V173   1.900       .  S
O167        C609   1.263   1_455  A
O168        V497   1.900   1_556  S
O168        C178   1.263       .  A
O169        V498   1.900       .  S
O169        C610   1.263       .  A
O170        V174   1.900       .  S
O170        C177   1.263       .  A
O172        V606   1.900   1_455  S
O172        C175   1.263       .  A
V173        O598   1.900   1_455  S
V173        O492   1.900   1_455  S
V173        V606   2.091   1_455  T
V174        O493   1.900       .  S
V174        O604   1.900       .  S
V174        V605   2.091       .  T
C175        C196   1.435       .  S
C176        C193   1.434       .  S
C177        O599   1.263       .  A
C177        C207   1.434       .  S
C178        O601   1.263       .  A
C178        C206   1.434       .  S
O179        V187   1.900       .  S
O179        C189   1.263       .  A
O180        V187   1.900       .  S
O180        C190   1.263       .  A
O181        V187   1.900       .  S
O181        C191   1.263       .  A
O182        V187   1.900       .  S
O182        C192   1.263       .  A
O183        V188   1.900       .  S
O184        V188   1.900       .  S
O185        V188   1.900       .  S
O186        V188   1.900       .  S
C189        C197   1.434       .  S
C190        C199   1.434       .  S
C191        C194   1.434       .  S
C192        C195   1.435       .  S
C193        C194   1.205       .  T
C195        C196   1.206       .  T
C197        C198   1.205       .  T
C199        C200   1.206       .  T
C201        C202   1.205       .  T
C203        C204   1.206       .  T
C205        C206   1.205       .  T
C207        C208   1.205       .  T
C209        C210   1.206       .  T
C211        C212   1.205       .  T
C213        C566   1.434       .  S
C213        C214   1.205       .  T
C215        C648   1.205       .  T
C216        C647   1.205       .  T
O217        V657   1.900       .  S
O217        C659   1.263       .  A
O218        C228   1.263   1_455  A
O219        V225   1.900       .  S
O220        V441   1.900   1_565  S
O220        C230   1.263   1_565  A
O221        V442   1.900       .  S
O222        V226   1.900       .  S
O222        C229   1.263       .  A
O223        V658   1.900       .  S
O223        C660   1.263       .  A
O224        C227   1.263       .  A
V225        O649   1.900       .  S
V225        O436   1.900   1_455  S
V226        O437   1.900   1_465  S
V226        O655   1.900   1_455  S
C227        O649   1.263       .  A
C227        C323   1.434       .  S
C228        O655   1.263       .  A
C228        C322   1.434       .  S
C229        C317   1.435       .  S
C230        C320   1.434       .  S
O231        V239   1.900       .  S
O231        C241   1.263       .  A
O232        V239   1.900       .  S
O232        C242   1.263       .  A
O233        V239   1.900       .  S
O233        C243   1.263       .  A
O234        V239   1.900       .  S
O234        C244   1.263       .  A
O235        V240   1.900       .  S
O235        C676   1.263   1_455  A
O236        V240   1.900       .  S
O236        C675   1.263       .  A
O237        V240   1.900       .  S
O237        C674   1.263   1_455  A
O238        V240   1.900       .  S
O238        C673   1.263       .  A
V239        V672   2.091       .  T
V240        V671   2.091   1_455  T
C241        O670   1.263       .  A
C241        C324   1.434       .  S
C242        O669   1.263       .  A
C242        C753   1.434       .  S
C243        O668   1.263       .  A
C243        C316   1.434       .  S
C244        O667   1.263       .  A
C244        C313   1.434       .  S
O245        V253   1.900       .  S
O246        V253   1.900       .  S
O247        V253   1.900       .  S
O247        C257   1.263       .  A
O248        V253   1.900       .  S
O248        C258   1.263       .  A
O249        V254   1.900       .  S
O250        V254   1.900       .  S
O251        V254   1.900       .  S
O251        C256   1.263   1_565  A
O252        V254   1.900       .  S
O252        C255   1.263       .  A
C255        C318   1.435       .  S
C256        C319   1.434       .  S
C257        C311   1.434       .  S
C258        C309   1.434       .  S
O259        V375   1.900       .  S
O259        C377   1.263       .  A
O260        C270   1.263   1_554  A
O261        V267   1.900       .  S
O261        C271   1.263       .  A
O263        C272   1.263       .  A
O264        V268   1.900       .  S
O265        V376   1.901   1_565  S
O265        C378   1.263       .  A
O266        C269   1.263       .  A
V267        O367   1.900   1_554  S
V268        O373   1.900   1_544  S
C269        O367   1.263   1_554  A
C269        C308   1.434       .  S
C270        O373   1.263       .  A
C270        C306   1.434       .  S
C271        C312   1.434       .  S
C272        C310   1.434       .  S
O273        V389   1.900       .  S
O273        C391   1.263       .  A
O274        V713   1.900       .  S
O274        C284   1.263       .  A
O275        V281   1.900       .  S
O275        C717   1.263       .  A
O276        V821   1.900       .  S
O276        C286   1.263       .  A
O277        V822   1.900   1_455  S
O277        C718   1.263   1_455  A
O278        V282   1.900   1_554  S
O278        C285   1.263       .  A
O279        V390   1.900       .  S
O279        C392   1.263       .  A
O280        V714   1.900   1_554  S
O280        C283   1.263       .  A
V281        O381   1.900   1_554  S
V281        O706   1.900   1_455  S
V281        O816   1.900   1_454  S
V281        V714   2.091   1_554  T
V282        O817   1.900       .  S
V282        O387   1.900       .  S
V282        O712   1.900   1_556  S
V282        V713   2.091   1_556  T
C283        O381   1.263   1_554  A
C283        C304   1.435       .  S
C284        O387   1.263   1_554  A
C284        C301   1.434       .  S
C285        O707   1.263       .  A
C285        C315   1.434       .  S
C286        O709   1.263       .  A
C286        C314   1.434       .  S
O287        V295   1.900       .  S
O287        C297   1.263   1_554  A
O288        V295   1.900       .  S
O288        C298   1.263       .  A
O289        V295   1.900       .  S
O289        C299   1.263       .  A
O290        V295   1.900       .  S
O290        C300   1.263       .  A
O291        V296   1.900       .  S
O291        C408   1.263       .  A
O292        V296   1.900       .  S
O292        C407   1.263       .  A
O293        V296   1.900       .  S
O293        C406   1.263       .  A
O294        V296   1.900       .  S
O294        C405   1.263       .  A
V295        V404   2.091   1_554  T
V296        V403   2.091       .  T
C297        O402   1.263       .  A
C297        C305   1.434       .  S
C298        O401   1.263   1_554  A
C298        C307   1.434       .  S
C299        O400   1.263   1_554  A
C299        C302   1.434       .  S
C300        O399   1.263   1_554  A
C300        C303   1.435       .  S
C301        C302   1.205       .  T
C303        C304   1.206       .  T
C305        C306   1.206       .  T
C307        C308   1.206       .  T
C309        C310   1.205       .  T
C311        C312   1.205       .  T
C313        C314   1.205       .  T
C315        C316   1.205       .  T
C317        C318   1.206       .  T
C319        C320   1.205       .  T
C321        C674   1.434       .  S
C321        C322   1.205       .  T
C323        C756   1.205       .  T
C324        C755   1.205       .  T
O325        V765   1.900       .  S
O325        C767   1.263       .  A
O326        C336   1.263   1_455  A
O327        V333   1.900       .  S
O328        V549   1.900   1_565  S
O328        C338   1.263   1_565  A
O329        V550   1.900       .  S
O330        V334   1.900       .  S
O330        C337   1.263       .  A
O331        V766   1.900       .  S
O331        C768   1.263       .  A
O332        C335   1.263       .  A
V333        O757   1.900   1_455  S
V333        O544   1.900   1_455  S
V334        O545   1.900   1_465  S
V334        O763   1.900   1_455  S
C335        O757   1.263   1_455  A
C335        C431   1.434       .  S
C336        O763   1.263       .  A
C336        C430   1.434       .  S
C337        C425   1.435       .  S
C338        C428   1.434       .  S
O339        V347   1.900       .  S
O339        C349   1.263       .  A
O340        V347   1.900       .  S
O340        C350   1.263       .  A
O341        V347   1.900       .  S
O341        C351   1.263       .  A
O342        V347   1.900       .  S
O342        C352   1.263       .  A
O343        V348   1.900       .  S
O343        C784   1.263       .  A
O344        V348   1.900       .  S
O344        C783   1.263   1_455  A
O345        V348   1.900       .  S
O345        C782   1.263   1_455  A
O346        V348   1.900       .  S
O346        C781   1.263       .  A
V347        V780   2.091       .  T
V348        V779   2.091   1_455  T
C349        O778   1.263       .  A
C349        C432   1.434       .  S
C350        O777   1.263       .  A
C350        C861   1.434       .  S
C351        O776   1.263       .  A
C351        C424   1.434       .  S
C352        O775   1.263       .  A
C352        C421   1.434       .  S
O353        V361   1.900       .  S
O354        V361   1.900       .  S
O355        V361   1.900       .  S
O355        C365   1.263       .  A
O356        V361   1.900       .  S
O356        C366   1.263       .  A
O357        V362   1.900       .  S
O358        V362   1.900       .  S
O359        V362   1.900       .  S
O359        C364   1.263   1_565  A
O360        V362   1.900       .  S
O360        C363   1.263       .  A
C363        C426   1.435       .  S
C364        C427   1.434       .  S
C365        C419   1.434       .  S
C366        C417   1.434       .  S
O368        C378   1.262       .  A
O369        V375   1.900       .  S
O369        C379   1.263       .  A
O371        C380   1.263       .  A
O372        V376   1.901   1_565  S
O374        C377   1.263       .  A
C377        C416   1.434       .  S
C378        C414   1.434       .  S
C379        C420   1.434       .  S
C380        C418   1.434       .  S
O382        V821   1.900       .  S
O382        C392   1.263       .  A
O383        V389   1.900       .  S
O383        C825   1.263   1_455  A
O384        V713   1.900   1_556  S
O384        C394   1.263       .  A
O385        V714   1.900       .  S
O385        C826   1.263       .  A
O386        V390   1.900       .  S
O386        C393   1.263       .  A
O388        V822   1.900   1_455  S
O388        C391   1.263       .  A
V389        O814   1.900   1_455  S
V389        O708   1.900   1_455  S
V389        V822   2.091   1_455  T
V390        O709   1.900       .  S
V390        O820   1.900       .  S
V390        V821   2.091       .  T
C391        C412   1.435       .  S
C392        C409   1.434       .  S
C393        O815   1.263       .  A
C393        C423   1.434       .  S
C394        O817   1.263       .  A
C394        C422   1.434       .  S
O395        V403   1.900       .  S
O395        C405   1.263       .  A
O396        V403   1.900       .  S
O396        C406   1.263       .  A
O397        V403   1.900       .  S
O397        C407   1.263       .  A
O398        V403   1.900       .  S
O398        C408   1.263       .  A
O399        V404   1.900       .  S
O400        V404   1.900       .  S
O401        V404   1.900       .  S
O402        V404   1.900       .  S
C405        C413   1.434       .  S
C406        C415   1.434       .  S
C407        C410   1.434       .  S
C408        C411   1.435       .  S
C409        C410   1.205       .  T
C411        C412   1.206       .  T
C413        C414   1.206       .  T
C415        C416   1.205       .  T
C417        C418   1.205       .  T
C419        C420   1.205       .  T
C421        C422   1.205       .  T
C423        C424   1.205       .  T
C425        C426   1.206       .  T
C427        C428   1.205       .  T
C429        C782   1.434       .  S
C429        C430   1.205       .  T
C431        C864   1.205       .  T
C432        C863   1.205       .  T
O434        V657   1.900       .  S
O434        C444   1.263       .  A
O435        V441   1.900       .  S
O435        C661   1.263   1_545  A
O436        C446   1.263       .  A
O437        C662   1.263       .  A
O438        V442   1.900       .  S
O438        C445   1.263       .  A
O440        V658   1.900   1_545  S
O440        C443   1.263       .  A
V441        O650   1.900   1_545  S
V441        V658   2.091   1_545  T
V442        O656   1.900       .  S
V442        V657   2.091       .  T
C443        C539   1.434       .  S
C444        C538   1.434       .  S
C445        O651   1.263       .  A
C445        C533   1.434       .  S
C446        O653   1.263       .  A
C446        C536   1.434       .  S
O447        V455   1.900       .  S
O447        C457   1.263   1_655  A
O448        V455   1.900       .  S
O448        C458   1.263       .  A
O449        V455   1.900       .  S
O449        C459   1.263   1_655  A
O450        V455   1.900       .  S
O450        C460   1.263       .  A
O451        V456   1.900       .  S
O452        V456   1.900       .  S
O453        V456   1.900       .  S
O454        V456   1.900       .  S
C457        C540   1.434       .  S
C459        C532   1.434       .  S
C460        C529   1.434       .  S
O461        V469   1.900       .  S
O461        C687   1.263   1_545  A
O462        V469   1.900       .  S
O462        C688   1.263       .  A
O463        V469   1.900       .  S
O463        C473   1.263       .  A
O464        V469   1.900       .  S
O464        C474   1.263       .  A
O465        V470   1.900       .  S
O465        C690   1.263       .  A
O466        V470   1.900       .  S
O466        C689   1.263       .  A
O467        V470   1.900       .  S
O467        C472   1.263       .  A
O468        V470   1.900       .  S
O468        C471   1.263       .  A
V469        V686   2.091   1_545  T
V470        V685   2.091       .  T
C471        O677   1.263       .  A
C471        C534   1.434       .  S
C472        O678   1.263       .  A
C472        C535   1.434       .  S
C473        O682   1.263   1_545  A
C473        C527   1.434       .  S
C474        O681   1.263   1_545  A
C474        C525   1.434       .  S
O475        V591   1.899       .  S
O475        C593   1.262       .  A
O476        V699   1.900       .  S
O476        C486   1.263   1_554  A
O477        V483   1.900       .  S
O477        C487   1.263   1_565  A
O478        V807   1.900       .  S
O478        C704   1.263       .  A
O479        V808   1.901       .  S
O479        C488   1.263       .  A
O480        V484   1.900       .  S
O480        C703   1.263       .  A
O481        V592   1.900       .  S
O481        C594   1.263       .  A
O482        V700   1.900       .  S
O482        C485   1.263       .  A
V483        O583   1.900   1_564  S
V483        O692   1.900       .  S
V483        O802   1.900   1_554  S
V483        V700   2.091   1_565  T
V484        O803   1.900   1_554  S
V484        O589   1.900   1_554  S
V484        O698   1.900       .  S
V484        V699   2.091       .  T
C485        O583   1.263   1_554  A
C485        C524   1.434       .  S
C486        O589   1.263       .  A
C486        C522   1.434       .  S
C487        O696   1.263       .  A
C487        C528   1.434       .  S
C488        O694   1.262   1_545  A
C488        C526   1.434       .  S
O489        V605   1.900       .  S
O489        C607   1.263       .  A
O490        C500   1.263       .  A
O491        V497   1.900       .  S
O492        C502   1.263       .  A
O494        V498   1.900   1_554  S
O494        C501   1.263       .  A
O495        V606   1.900       .  S
O495        C608   1.263       .  A
O496        C499   1.263       .  A
V497        O597   1.900   1_554  S
V498        O603   1.900   1_455  S
C499        O597   1.263   1_554  A
C499        C520   1.435       .  S
C500        O603   1.263   1_554  A
C500        C517   1.434       .  S
C501        C531   1.434       .  S
C502        C530   1.434       .  S
O503        V511   1.900       .  S
O503        C513   1.263   1_554  A
O504        V511   1.900       .  S
O504        C514   1.263       .  A
O505        V511   1.900       .  S
O505        C515   1.263       .  A
O506        V511   1.900       .  S
O506        C516   1.263       .  A
O507        V512   1.900       .  S
O507        C624   1.263       .  A
O508        V512   1.900       .  S
O508        C623   1.263       .  A
O509        V512   1.900       .  S
O509        C622   1.263       .  A
O510        V512   1.900       .  S
O510        C621   1.263       .  A
V511        V620   2.091   1_554  T
V512        V619   2.091       .  T
C513        O618   1.263       .  A
C513        C521   1.434       .  S
C514        O617   1.263   1_554  A
C514        C523   1.434       .  S
C515        O616   1.263   1_554  A
C515        C518   1.434       .  S
C516        O615   1.263   1_554  A
C516        C519   1.435       .  S
C517        C518   1.205       .  T
C519        C520   1.206       .  T
C521        C522   1.206       .  T
C523        C524   1.206       .  T
C525        C526   1.206       .  T
C527        C528   1.205       .  T
C529        C530   1.205       .  T
C531        C532   1.205       .  T
C533        C534   1.206       .  T
C535        C536   1.205       .  T
C537        C538   1.205       .  T
O542        V765   1.900       .  S
O542        C552   1.263       .  A
O543        V549   1.900       .  S
O543        C769   1.263   1_545  A
O544        C554   1.263       .  A
O545        C770   1.263       .  A
O546        V550   1.900       .  S
O546        C553   1.263       .  A
O548        V766   1.900   1_545  S
O548        C551   1.263       .  A
V549        O758   1.900   1_545  S
V549        V766   2.091   1_545  T
V550        O764   1.900       .  S
V550        V765   2.091       .  T
C551        C647   1.434       .  S
C552        C646   1.434       .  S
C553        O759   1.263       .  A
C553        C641   1.434       .  S
C554        O761   1.263       .  A
C554        C644   1.434       .  S
O555        V563   1.900       .  S
O555        C565   1.263   1_655  A
O556        V563   1.900       .  S
O556        C566   1.263       .  A
O557        V563   1.900       .  S
O557        C567   1.263       .  A
O558        V563   1.900       .  S
O558        C568   1.263   1_655  A
O559        V564   1.900       .  S
O560        V564   1.900       .  S
O561        V564   1.900       .  S
O562        V564   1.900       .  S
C565        C648   1.434       .  S
C567        C640   1.434       .  S
C568        C637   1.434       .  S
O569        V577   1.900       .  S
O569        C795   1.263   1_545  A
O570        V577   1.900       .  S
O570        C796   1.263       .  A
O571        V577   1.900       .  S
O571        C581   1.263       .  A
O572        V577   1.900       .  S
O572        C582   1.263       .  A
O573        V578   1.900       .  S
O573        C798   1.263       .  A
O574        V578   1.900       .  S
O574        C797   1.263       .  A
O575        V578   1.900       .  S
O575        C580   1.263       .  A
O576        V578   1.900       .  S
O576        C579   1.263       .  A
V577        V794   2.091   1_545  T
V578        V793   2.091       .  T
C579        O785   1.263       .  A
C579        C642   1.434       .  S
C580        O786   1.263       .  A
C580        C643   1.434       .  S
C581        O790   1.263   1_545  A
C581        C635   1.434       .  S
C582        O789   1.263   1_545  A
C582        C633   1.434       .  S
O584        V807   1.900       .  S
O584        C594   1.263       .  A
O585        V591   1.899       .  S
O585        C595   1.262       .  A
O586        V699   1.900   1_556  S
O586        C812   1.263       .  A
O587        V700   1.900   1_556  S
O587        C596   1.263       .  A
O588        V592   1.900       .  S
O588        C811   1.263       .  A
O590        V808   1.901       .  S
O590        C593   1.263       .  A
V591        O800   1.899   1_545  S
V591        O694   1.899   1_545  S
V591        V808   2.091       .  T
V592        O695   1.900       .  S
V592        O806   1.900       .  S
V592        V807   2.091       .  T
C593        C632   1.434       .  S
C594        C630   1.434       .  S
C595        O804   1.263   1_545  A
C595        C636   1.434       .  S
C596        O802   1.263   1_545  A
C596        C634   1.434       .  S
O598        C608   1.263       .  A
O599        V605   1.900       .  S
O600        C610   1.263   1_655  A
O602        V606   1.900       .  S
O602        C609   1.263       .  A
O604        C607   1.263       .  A
C607        C628   1.435       .  S
C608        C625   1.434       .  S
C609        C639   1.434       .  S
C610        C638   1.434       .  S
O611        V619   1.900       .  S
O611        C621   1.263       .  A
O612        V619   1.900       .  S
O612        C622   1.263       .  A
O613        V619   1.900       .  S
O613        C623   1.263       .  A
O614        V619   1.900       .  S
O614        C624   1.263       .  A
O615        V620   1.900       .  S
O616        V620   1.900       .  S
O617        V620   1.900       .  S
O618        V620   1.900       .  S
C621        C629   1.434       .  S
C622        C631   1.434       .  S
C623        C626   1.434       .  S
C624        C627   1.435       .  S
C625        C626   1.205       .  T
C627        C628   1.206       .  T
C629        C630   1.205       .  T
C631        C632   1.206       .  T
C633        C634   1.205       .  T
C635        C636   1.206       .  T
C637        C638   1.205       .  T
C639        C640   1.205       .  T
C641        C642   1.206       .  T
C643        C644   1.205       .  T
C645        C646   1.205       .  T
O650        C660   1.263       .  A
O651        V657   1.900       .  S
O652        C662   1.263   1_565  A
O654        V658   1.900       .  S
O654        C661   1.263       .  A
O656        C659   1.263       .  A
C659        C755   1.434       .  S
C660        C754   1.434       .  S
C661        C749   1.435       .  S
C662        C752   1.434       .  S
O663        V671   1.900       .  S
O663        C673   1.263   1_655  A
O664        V671   1.900       .  S
O664        C674   1.263       .  A
O665        V671   1.900       .  S
O665        C675   1.263   1_655  A
O666        V671   1.900       .  S
O666        C676   1.263       .  A
O667        V672   1.900       .  S
O668        V672   1.900       .  S
O669        V672   1.900       .  S
O670        V672   1.900       .  S
C673        C756   1.434       .  S
C675        C748   1.434       .  S
C676        C745   1.434       .  S
O677        V685   1.900       .  S
O678        V685   1.900       .  S
O679        V685   1.900       .  S
O679        C689   1.263       .  A
O680        V685   1.900       .  S
O680        C690   1.263       .  A
O681        V686   1.900       .  S
O682        V686   1.900       .  S
O683        V686   1.900       .  S
O683        C688   1.263   1_565  A
O684        V686   1.900       .  S
O684        C687   1.263       .  A
C687        C750   1.435       .  S
C688        C751   1.434       .  S
C689        C743   1.434       .  S
C690        C741   1.434       .  S
O691        V807   1.900       .  S
O691        C809   1.263       .  A
O692        C702   1.263   1_554  A
O693        V699   1.900       .  S
O693        C703   1.263       .  A
O695        C704   1.263       .  A
O696        V700   1.900       .  S
O697        V808   1.901   1_565  S
O697        C810   1.263       .  A
O698        C701   1.263       .  A
V699        O799   1.900   1_554  S
V700        O805   1.900   1_544  S
C701        O799   1.263   1_554  A
C701        C740   1.434       .  S
C702        O805   1.263       .  A
C702        C738   1.434       .  S
C703        C744   1.434       .  S
C704        C742   1.434       .  S
O705        V821   1.900       .  S
O705        C823   1.263       .  A
O706        C716   1.263       .  A
O707        V713   1.900       .  S
O708        C718   1.263       .  A
O710        V714   1.900   1_554  S
O710        C717   1.263       .  A
O711        V822   1.900       .  S
O711        C824   1.263       .  A
O712        C715   1.263       .  A
V713        O813   1.900   1_554  S
V714        O819   1.900   1_455  S
C715        O813   1.263   1_554  A
C715        C736   1.435       .  S
C716        O819   1.263   1_554  A
C716        C733   1.434       .  S
C717        C747   1.434       .  S
C718        C746   1.434       .  S
O719        V727   1.900       .  S
O719        C729   1.263   1_554  A
O720        V727   1.900       .  S
O720        C730   1.263       .  A
O721        V727   1.900       .  S
O721        C731   1.263       .  A
O722        V727   1.900       .  S
O722        C732   1.263       .  A
O723        V728   1.900       .  S
O723        C840   1.263       .  A
O724        V728   1.900       .  S
O724        C839   1.263       .  A
O725        V728   1.900       .  S
O725        C838   1.263       .  A
O726        V728   1.900       .  S
O726        C837   1.263       .  A
V727        V836   2.091   1_554  T
V728        V835   2.091       .  T
C729        O834   1.263       .  A
C729        C737   1.434       .  S
C730        O833   1.263   1_554  A
C730        C739   1.434       .  S
C731        O832   1.263   1_554  A
C731        C734   1.434       .  S
C732        O831   1.263   1_554  A
C732        C735   1.435       .  S
C733        C734   1.205       .  T
C735        C736   1.206       .  T
C737        C738   1.206       .  T
C739        C740   1.206       .  T
C741        C742   1.205       .  T
C743        C744   1.205       .  T
C745        C746   1.205       .  T
C747        C748   1.205       .  T
C749        C750   1.206       .  T
C751        C752   1.205       .  T
C753        C754   1.205       .  T
O758        C768   1.263       .  A
O759        V765   1.900       .  S
O760        C770   1.263   1_565  A
O762        V766   1.900       .  S
O762        C769   1.263       .  A
O764        C767   1.263       .  A
C767        C863   1.434       .  S
C768        C862   1.434       .  S
C769        C857   1.435       .  S
C770        C860   1.434       .  S
O771        V779   1.900       .  S
O771        C781   1.263   1_655  A
O772        V779   1.900       .  S
O772        C782   1.263       .  A
O773        V779   1.900       .  S
O773        C783   1.263       .  A
O774        V779   1.900       .  S
O774        C784   1.263   1_655  A
O775        V780   1.900       .  S
O776        V780   1.900       .  S
O777        V780   1.900       .  S
O778        V780   1.900       .  S
C781        C864   1.434       .  S
C783        C856   1.434       .  S
C784        C853   1.434       .  S
O785        V793   1.900       .  S
O786        V793   1.900       .  S
O787        V793   1.900       .  S
O787        C797   1.263       .  A
O788        V793   1.900       .  S
O788        C798   1.263       .  A
O789        V794   1.900       .  S
O790        V794   1.900       .  S
O791        V794   1.900       .  S
O791        C796   1.263   1_565  A
O792        V794   1.900       .  S
O792        C795   1.263       .  A
C795        C858   1.435       .  S
C796        C859   1.434       .  S
C797        C851   1.434       .  S
C798        C849   1.434       .  S
O800        C810   1.262       .  A
O801        V807   1.900       .  S
O801        C811   1.263       .  A
O803        C812   1.263       .  A
O804        V808   1.901   1_565  S
O806        C809   1.263       .  A
C809        C848   1.434       .  S
C810        C846   1.434       .  S
C811        C852   1.434       .  S
C812        C850   1.434       .  S
O814        C824   1.263       .  A
O815        V821   1.900       .  S
O816        C826   1.263   1_655  A
O818        V822   1.900       .  S
O818        C825   1.263       .  A
O820        C823   1.263       .  A
C823        C844   1.435       .  S
C824        C841   1.434       .  S
C825        C855   1.434       .  S
C826        C854   1.434       .  S
O827        V835   1.900       .  S
O827        C837   1.263       .  A
O828        V835   1.900       .  S
O828        C838   1.263       .  A
O829        V835   1.900       .  S
O829        C839   1.263       .  A
O830        V835   1.900       .  S
O830        C840   1.263       .  A
O831        V836   1.900       .  S
O832        V836   1.900       .  S
O833        V836   1.900       .  S
O834        V836   1.900       .  S
C837        C845   1.434       .  S
C838        C847   1.434       .  S
C839        C842   1.434       .  S
C840        C843   1.435       .  S
C841        C842   1.205       .  T
C843        C844   1.206       .  T
C845        C846   1.206       .  T
C847        C848   1.205       .  T
C849        C850   1.205       .  T
C851        C852   1.205       .  T
C853        C854   1.205       .  T
C855        C856   1.205       .  T
C857        C858   1.206       .  T
C859        C860   1.205       .  T
C861        C862   1.205       .  T
