geometry optimzed in LAMMPS
_audit_creation_date              2020-12-01 
_audit_creation_method            'lammps2cif' 
_symmetry_space_group_name_H-M    'P1' 
_symmetry_Int_Tables_number       1 
_symmetry_cell_setting            triclinic 
loop_ 
_symmetry_equiv_pos_as_xyz 
  x,y,z 
_cell_length_a                    16.37182422 
_cell_length_b                    16.16528531370945 
_cell_length_c                    39.82387988125564 
_cell_angle_alpha                 90.72151364244797 
_cell_angle_beta                  90.02285094829998 
_cell_angle_gamma                 91.75710444348367 
loop_ 
_atom_site_label 
_atom_site_type_symbol 
_atom_site_fract_x 
_atom_site_fract_y 
_atom_site_fract_z 
_atom_site_charge 
O1          O  0.98831577  0.46281290  0.53908779    -0.73800
O2          O  0.10804207  0.06625534  0.46880253    -0.73800
O3          O  0.10488173  0.07847481  0.54003557    -0.73900
O4          O  0.98713217  0.45377229  0.47183276    -0.76900
O5          O  0.39337680  0.55070357  0.47033109    -0.73800
O6          O  0.51386021  0.17706653  0.53599073    -0.73800
O7          O  0.51407403  0.16232377  0.46486533    -0.73800
O8          O  0.39535372  0.56110952  0.53832254    -0.73900
Ni9        Ni  0.05123244  0.51262668  0.50492585     1.25400
Ni10       Ni  0.45150574  0.11720069  0.50227691     1.25400
C11         C  0.42541721  0.49653585  0.55135486     0.88400
C12         C  0.07304051  0.12180857  0.45184336     0.88300
C13         C  0.06744628  0.13973943  0.55318187     0.88400
C14         C  0.42190490  0.48305424  0.45934679     0.88500
C15         C  0.32489247  0.01898281  0.77270561     0.87100
C16         C  0.31830086  0.45052785  0.74602757    -0.53100
C17         C  0.38797851  0.43585880  0.72892664     0.10100
C18         C  0.45893463  0.99843506  0.73752376     0.21000
C19         C  0.39971891  0.99802884  0.79403272    -0.53800
C20         C  0.47028709  0.98711102  0.77596356     0.10200
C21         C  0.35356678  0.09586381  0.75344009    -0.53400
C22         C  0.42243846  0.08670136  0.73391007     0.10700
H23         H  0.26266107  0.41655782  0.73959023     0.15200
H24         H  0.51523940  0.48873530  0.72269377     0.01000
H25         H  0.39698899  0.99112266  0.82090161     0.15500
H26         H  0.32340363  0.15381050  0.75715027     0.15300
C27         C  0.34495505  0.99855483  0.23864925     0.87100
C28         C  0.37652836  0.07587738  0.25742606    -0.53100
C29         C  0.44560935  0.06770996  0.27644316     0.10100
C30         C  0.48021367  0.97781160  0.27266499     0.21000
C31         C  0.41720533  0.97354622  0.21659548    -0.53800
C32         C  0.48943319  0.96384667  0.23372136     0.10200
C33         C  0.33769717  0.43152229  0.26507161    -0.53400
C34         C  0.40759323  0.41681570  0.28222570     0.10700
H35         H  0.34807799  0.13429016  0.25335117     0.15200
H36         H  0.53712369  0.46799550  0.28694602     0.01000
H37         H  0.41028619  0.96326125  0.18988166     0.15500
H38         H  0.28157678  0.39703207  0.27030185     0.15300
N39         N  0.40812955  0.34770317  0.30553396    -0.02800
C40         C  0.34867150  0.34919615  0.32955689    -0.00200
C41         C  0.29663792  0.28139421  0.32718553    -0.23100
C42         C  0.33138590  0.22847132  0.30536247    -0.23300
C43         C  0.40089980  0.26808462  0.29286141    -0.00300
H44         H  0.25313833  0.26207267  0.34603606     0.13400
H45         H  0.31566771  0.16322499  0.30512619     0.13500
O46         O  0.49761806  0.00693539  0.03943574    -0.73800
O47         O  0.35791299  0.09327474  0.97219385    -0.73800
O48         O  0.36126277  0.08892048  0.04200097    -0.73900
O49         O  0.49470683  0.01116572  0.97003151    -0.73900
O50         O  0.42295142  0.39213954  0.96825907    -0.73800
O51         O  0.29067094  0.46905074  0.04075071    -0.73800
O52         O  0.28642560  0.47364910  0.97130257    -0.73800
O53         O  0.42712678  0.38670966  0.03791176    -0.73900
Ni54       Ni  0.43038076  0.05435667  0.00595047     1.25400
Ni55       Ni  0.35418246  0.42615481  0.00452100     1.25400
C56         C  0.47924961  0.93636217  0.05218050     0.88400
C57         C  0.30589902  0.04334466  0.95803820     0.88300
C58         C  0.31121004  0.03716172  0.05577843     0.88400
C59         C  0.47434603  0.94332209  0.95486570     0.88500
N60         N  0.26732913  0.01265402  0.22020660    -0.02800
C61         C  0.26405804  0.07759978  0.19899644    -0.00200
C62         C  0.19943177  0.12568811  0.20785670    -0.23100
C63         C  0.15492123  0.08314879  0.23132390    -0.23300
C64         C  0.19247445  0.00870366  0.23571018    -0.00300
H65         H  0.17455667  0.17308788  0.19276299     0.13400
H66         H  0.09170975  0.09541212  0.23640786     0.13500
N67         N  0.48356965  0.14001358  0.29437306    -0.02800
C68         C  0.56233846  0.14225689  0.30569653    -0.00200
C69         C  0.60434906  0.20508849  0.28892726    -0.23100
C70         C  0.54688773  0.25575033  0.27601379    -0.23300
C71         C  0.47238365  0.21808636  0.28243699    -0.00300
H72         H  0.66661936  0.22510907  0.29352498     0.13400
H73         H  0.55781608  0.31963927  0.26970354     0.13500
N74         N  0.06362989  0.43505208  0.21712889    -0.02800
C75         C  0.06300286  0.37968937  0.19100665    -0.00200
C76         C  0.13016032  0.83140692  0.19316430    -0.23100
C77         C  0.17722826  0.86179060  0.21897276    -0.23300
C78         C  0.13954401  0.43164263  0.23149520    -0.00300
H79         H  0.15272545  0.79322587  0.17303106     0.13400
H80         H  0.24087931  0.84711743  0.22108220     0.13500
N81         N  0.24693509  0.02939781  0.79175920    -0.02800
C82         C  0.24108330  0.08799557  0.81644967    -0.00200
C83         C  0.17397806  0.13477299  0.81051324    -0.23100
C84         C  0.13426618  0.10173350  0.78315139    -0.23300
C85         C  0.17275779  0.02881294  0.77556496    -0.00300
H86         H  0.14443602  0.17155268  0.82925499     0.13400
H87         H  0.07200353  0.11600077  0.77707142     0.13500
N88         N  0.39056252  0.36497467  0.70632316    -0.02800
C89         C  0.33859641  0.36664861  0.67987178    -0.00200
C90         C  0.28531066  0.29938595  0.67977589    -0.23100
C91         C  0.31168986  0.24846281  0.70422931    -0.23300
C92         C  0.38052266  0.28658091  0.71869123    -0.00300
H93         H  0.24303912  0.28108071  0.65998025     0.13400
H94         H  0.29280763  0.18403467  0.70508827     0.13500
N95         N  0.46021853  0.15650703  0.71545483    -0.02800
C96         C  0.53547084  0.15442130  0.70029524    -0.00200
C97         C  0.58160259  0.22154108  0.71266993    -0.23100
C98         C  0.52919208  0.27365636  0.72856182    -0.23300
C99         C  0.45286402  0.23581267  0.72726090    -0.00300
H100        H  0.64033869  0.24251943  0.70348302     0.13400
H101        H  0.54213132  0.33868454  0.73294890     0.13500
N102        N  0.04320125  0.45342325  0.79093559    -0.02800
C103        C  0.03860392  0.39076315  0.81326733    -0.00200
C104        C  0.10261958  0.33986175  0.80787802    -0.23100
C105        C  0.15333153  0.37723588  0.78515233    -0.23300
C106        C  0.11890578  0.45160766  0.77650685    -0.00300
H107        H  0.12333705  0.29642492  0.82577558     0.13400
H108        H  0.21643889  0.86086801  0.78356306     0.13500
C109        C  0.26979468  0.14552243  0.87403173    -0.25700
C110        C  0.26527193  0.07593311  0.85225758    -0.13700
C111        C  0.26854053  0.99650606  0.86651773     0.36900
C112        C  0.27638059  0.98838960  0.90129334    -0.25100
C113        C  0.28121700  0.05764131  0.92287494    -0.14400
C114        C  0.27787216  0.13703298  0.90900121     0.38000
N115        N  0.28081818  0.20901396  0.93032428    -0.88600
H116        H  0.26510415  0.20710001  0.86387975     0.19100
H117        H  0.28120801  0.42663279  0.91131477     0.19100
N118        N  0.26184089  0.42302997  0.84625035    -0.87600
H119        H  0.22722987  0.24122712  0.92654226     0.36500
H120        H  0.32981301  0.24703206  0.92264745     0.41500
H121        H  0.21304294  0.38725428  0.85565453     0.41200
H122        H  0.31462023  0.38934204  0.84971120     0.36100
C123        C  0.30323870  0.12747244  0.10723206    -0.25700
C124        C  0.28870705  0.04968416  0.09168992    -0.13700
C125        C  0.27007528  0.98088954  0.11229412     0.36900
C126        C  0.26765040  0.99078326  0.14723812    -0.25100
C127        C  0.28250494  0.06816149  0.16266606    -0.14400
C128        C  0.30069286  0.13699114  0.14240408     0.38000
N129        N  0.31750305  0.21641095  0.15758231    -0.88600
H130        H  0.31797131  0.18095359  0.09207002     0.19100
H131        H  0.25226640  0.93737523  0.16230925     0.19100
N132        N  0.25623709  0.89981381  0.09809352    -0.87600
H133        H  0.37603551  0.23622702  0.15030382     0.36500
H134        H  0.27607216  0.25775479  0.14791048     0.41500
H135        H  0.30091659  0.86140330  0.10741651     0.41200
H136        H  0.19904276  0.87725216  0.10611001     0.36100
C137        C  0.98371530  0.35076907  0.90441890    -0.25700
C138        C  0.50028225  0.92893289  0.91941583    -0.13700
C139        C  0.52688606  0.99500898  0.89837651     0.36900
C140        C  0.53398009  0.98188170  0.86379148    -0.25100
C141        C  0.01528144  0.40453565  0.84890921    -0.14400
C142        C  0.99080718  0.33825834  0.86956640     0.38000
N143        N  0.97349668  0.25800775  0.85515578    -0.88600
H144        H  0.96412354  0.29909180  0.91976928     0.19100
H145        H  0.55603020  0.03269095  0.84845389     0.19100
N146        N  0.54598519  0.07680547  0.91088541    -0.87600
H147        H  0.01199808  0.21598256  0.86639904     0.36500
H148        H  0.91334293  0.24085114  0.86117506     0.41500
H149        H  0.59234948  0.07384418  0.92884309     0.41200
H150        H  0.49362387  0.10159218  0.92152010     0.36100
C151        C  0.51876325  0.98701391  0.10880301    -0.25700
C152        C  0.50700852  0.91924592  0.08672456    -0.13700
C153        C  0.00806990  0.33867891  0.09972153     0.36900
C154        C  0.01963555  0.32762264  0.13432757    -0.25100
C155        C  0.03169137  0.89560499  0.15652566    -0.14400
C156        C  0.53181602  0.97615106  0.14318850     0.38000
N157        N  0.54739921  0.04754843  0.16405413    -0.88600
H158        H  0.51635502  0.04963620  0.09950406     0.19100
H159        H  0.02260248  0.26515612  0.14374680     0.19100
N160        N  0.00015823  0.26801788  0.07779209    -0.87600
H161        H  0.49679731  0.08530947  0.16263507     0.36500
H162        H  0.59736131  0.08035720  0.15393618     0.41500
H163        H  0.95082069  0.23129113  0.08604733     0.41200
H164        H  0.05284846  0.23360613  0.08020352     0.36100
C165        C  0.33072767  0.45784823  0.37298160    -0.25700
C166        C  0.36366025  0.38237734  0.36352871    -0.13700
C167        C  0.39858711  0.33210594  0.38826206     0.36900
C168        C  0.41023104  0.36354678  0.42071839    -0.25100
C169        C  0.38545893  0.44282030  0.42932997    -0.14400
C170        C  0.33979826  0.48761644  0.40603678     0.38000
N171        N  0.30374744  0.56368680  0.41567734    -0.88600
H172        H  0.29762615  0.49334970  0.35480866     0.19100
H173        H  0.94252663  0.32741633  0.43891125     0.19100
N174        N  0.42351237  0.24972872  0.38037912    -0.87600
H175        H  0.24097974  0.05711214  0.41165888     0.36500
H176        H  0.32593451  0.10929009  0.39968683     0.41500
H177        H  0.37228228  0.21466297  0.37313857     0.41200
H178        H  0.94340707  0.22094905  0.40208932     0.36100
C179        C  0.95966626  0.45525472  0.60774836    -0.25700
C180        C  0.39809969  0.46702115  0.58404422    -0.13700
C181        C  0.31637150  0.44844233  0.59206929     0.36900
C182        C  0.29721770  0.42159401  0.62453563    -0.25100
C183        C  0.35925272  0.40935294  0.64839070    -0.14400
C184        C  0.44176374  0.42563153  0.63958182     0.38000
N185        N  0.00772022  0.40754140  0.66192514    -0.88600
H186        H  0.02301430  0.46814330  0.60112920     0.19100
H187        H  0.23396355  0.40692316  0.63062059     0.19100
N188        N  0.25439292  0.44888589  0.56670157    -0.87600
H189        H  0.06384640  0.42892961  0.65234714     0.36500
H190        H  0.01090045  0.34311944  0.66286155     0.41500
H191        H  0.20482487  0.48082344  0.57618309     0.41200
H192        H  0.23359196  0.38770494  0.56285625     0.36100
C193        C  0.57152669  0.06107978  0.35900733    -0.25700
C194        C  0.57840175  0.13764497  0.34313687    -0.13700
C195        C  0.59590567  0.20941406  0.36375355     0.36900
C196        C  0.10078039  0.20268303  0.39908293    -0.25100
C197        C  0.58910838  0.12651542  0.41480788    -0.14400
C198        C  0.57840080  0.05450741  0.39424886     0.38000
N199        N  0.57075088  0.97459155  0.40936435    -0.88600
H200        H  0.55959295  0.00588855  0.34391477     0.19100
H201        H  0.10831003  0.25813934  0.41449147     0.19100
N202        N  0.60270785  0.29039316  0.34935625    -0.87600
H203        H  0.55608764  0.42925761  0.39131269     0.36500
H204        H  0.62783703  0.46017954  0.41914349     0.41500
H205        H  0.63194266  0.33206482  0.36600440     0.41200
H206        H  0.04398465  0.31123033  0.34508861     0.36100
C207        C  0.48855004  0.15017171  0.60591984    -0.25700
C208        C  0.56588423  0.15082307  0.59075980    -0.13700
C209        C  0.13470076  0.14791430  0.61192423     0.36900
C210        C  0.62389417  0.14058423  0.64738546    -0.25100
C211        C  0.54528467  0.13919229  0.66259093    -0.14400
C212        C  0.47770805  0.14233449  0.64073619     0.38000
N213        N  0.39657146  0.13990099  0.65354551    -0.88600
H214        H  0.43435643  0.15263505  0.59042375     0.19100
H215        H  0.17734065  0.13990054  0.66336419     0.19100
N216        N  0.21462423  0.16181426  0.59792880    -0.87600
H217        H  0.36519215  0.08887543  0.64288632     0.36500
H218        H  0.36960463  0.19336574  0.64515840     0.41500
H219        H  0.22627315  0.11533140  0.58042747     0.41200
H220        H  0.25843191  0.15752749  0.61664651     0.36100
O221        O  0.98825791  0.96279115  0.53909129    -0.73800
O222        O  0.10813763  0.56624918  0.46880384    -0.73800
O223        O  0.10496720  0.57846094  0.54004061    -0.73900
O224        O  0.98707315  0.95374045  0.47183661    -0.76900
O225        O  0.39328966  0.05064327  0.47033148    -0.73800
O226        O  0.51398943  0.67709173  0.53599114    -0.73800
O227        O  0.51419909  0.66234620  0.46486484    -0.73800
O228        O  0.39525498  0.06104720  0.53832197    -0.73900
Ni229      Ni  0.05115790  0.01261883  0.50492642     1.25400
Ni230      Ni  0.45161733  0.61724465  0.50227673     1.25400
C231        C  0.42534199  0.99648827  0.55135654     0.88400
C232        C  0.07315058  0.62180853  0.45184301     0.88300
C233        C  0.06754964  0.63973890  0.55318658     0.88400
C234        C  0.42184296  0.98300652  0.45934724     0.88500
C235        C  0.32493189  0.51897358  0.77270698     0.87100
C236        C  0.31826792  0.95052101  0.74603170    -0.53100
C237        C  0.38794869  0.93585022  0.72893210     0.10100
C238        C  0.45897074  0.49843160  0.73752272     0.21000
C239        C  0.39975597  0.49800430  0.79403213    -0.53800
C240        C  0.47032413  0.48709365  0.77596214     0.10200
C241        C  0.35361401  0.59586195  0.75344926    -0.53400
C242        C  0.42247913  0.58669967  0.73391518     0.10700
H243        H  0.26263137  0.91654310  0.73959667     0.15200
H244        H  0.51520479  0.98873629  0.72269606     0.01000
H245        H  0.39702676  0.49109164  0.82090051     0.15500
H246        H  0.32346088  0.65381130  0.75716766     0.15300
C247        C  0.34495054  0.49854250  0.23865058     0.87100
C248        C  0.37652704  0.57586741  0.25742372    -0.53100
C249        C  0.44560955  0.56770431  0.27643990     0.10100
C250        C  0.48021342  0.47780823  0.27266470     0.21000
C251        C  0.41719741  0.47352281  0.21659693    -0.53800
C252        C  0.48942781  0.46383179  0.23372177     0.10200
C253        C  0.33770071  0.93152598  0.26506663    -0.53400
C254        C  0.40759232  0.91681314  0.28222097     0.10700
H255        H  0.34807216  0.63427786  0.25334901     0.15200
H256        H  0.53712219  0.96799365  0.28694685     0.01000
H257        H  0.41027440  0.46322392  0.18988419     0.15500
H258        H  0.28158117  0.89703134  0.27029370     0.15300
N259        N  0.40812208  0.84768875  0.30552408    -0.02800
C260        C  0.34867273  0.84917468  0.32955020    -0.00200
C261        C  0.29665234  0.78136166  0.32718767    -0.23100
C262        C  0.33139388  0.72844562  0.30536092    -0.23300
C263        C  0.40089323  0.76807081  0.29285080    -0.00300
H264        H  0.25318086  0.76203137  0.34604781     0.13400
H265        H  0.31569237  0.66319541  0.30513091     0.13500
O266        O  0.49764167  0.50685537  0.03943226    -0.73800
O267        O  0.35795163  0.59324013  0.97219551    -0.73800
O268        O  0.36130663  0.58887568  0.04200123    -0.73900
O269        O  0.49472634  0.51109870  0.97002919    -0.73900
O270        O  0.42294692  0.89219716  0.96826302    -0.73800
O271        O  0.29064441  0.96908562  0.04074832    -0.73800
O272        O  0.28640426  0.97367351  0.97130200    -0.73800
O273        O  0.42712060  0.88677960  0.03791472    -0.73900
Ni274      Ni  0.43041293  0.55429865  0.00594962     1.25400
Ni275      Ni  0.35416954  0.92620134  0.00452223     1.25400
C276        C  0.47926187  0.43628515  0.05217761     0.88400
C277        C  0.30593089  0.54331895  0.95803942     0.88300
C278        C  0.31124863  0.53712561  0.05578013     0.88400
C279        C  0.47435816  0.44325852  0.95486250     0.88500
N280        N  0.26732748  0.51265042  0.22020734    -0.02800
C281        C  0.26407033  0.57759279  0.19899452    -0.00200
C282        C  0.19943585  0.62568053  0.20784385    -0.23100
C283        C  0.15491205  0.58314853  0.23130931    -0.23300
C284        C  0.19246677  0.50870700  0.23570647    -0.00300
H285        H  0.17457220  0.67307680  0.19274455     0.13400
H286        H  0.09169795  0.59541437  0.23638772     0.13500
N287        N  0.48356711  0.64000940  0.29436866    -0.02800
C288        C  0.56233390  0.64225700  0.30569461    -0.00200
C289        C  0.60434485  0.70508311  0.28892118    -0.23100
C290        C  0.54688340  0.75573904  0.27600230    -0.23300
C291        C  0.47237972  0.71807623  0.28242751    -0.00300
H292        H  0.66661577  0.72510596  0.29351784     0.13400
H293        H  0.55781000  0.81962745  0.26969032     0.13500
N294        N  0.06363329  0.93506283  0.21712811    -0.02800
C295        C  0.06299895  0.87970409  0.19100451    -0.00200
C296        C  0.13017218  0.33140449  0.19316750    -0.23100
C297        C  0.17723054  0.36178961  0.21897834    -0.23300
C298        C  0.13954792  0.93164397  0.23149301    -0.00300
H299        H  0.15274412  0.29322633  0.17303496     0.13400
H300        H  0.24088166  0.34711969  0.22109041     0.13500
N301        N  0.24697350  0.52938336  0.79175944    -0.02800
C302        C  0.24112143  0.58797405  0.81645124    -0.00200
C303        C  0.17402556  0.63476456  0.81051283    -0.23100
C304        C  0.13431225  0.60173082  0.78314985    -0.23300
C305        C  0.17279850  0.52880742  0.77556367    -0.00300
H306        H  0.14449355  0.67155947  0.82925224     0.13400
H307        H  0.07205208  0.61600411  0.77706797     0.13500
N308        N  0.39054453  0.86495561  0.70633364    -0.02800
C309        C  0.33857716  0.86660677  0.67988218    -0.00200
C310        C  0.28531338  0.79932846  0.67978830    -0.23100
C311        C  0.31170381  0.74842161  0.70424456    -0.23300
C312        C  0.38052874  0.78656145  0.71870457    -0.00300
H313        H  0.24305258  0.78100460  0.65999157     0.13400
H314        H  0.29284009  0.68398852  0.70510329     0.13500
N315        N  0.46025302  0.65650353  0.71545831    -0.02800
C316        C  0.53550779  0.65442071  0.70030031    -0.00200
C317        C  0.58162897  0.72154889  0.71267302    -0.23100
C318        C  0.52921120  0.77366291  0.72856169    -0.23300
C319        C  0.45288919  0.73580857  0.72726367    -0.00300
H320        H  0.64036227  0.74253039  0.70348587     0.13400
H321        H  0.54214053  0.83869365  0.73294570     0.13500
N322        N  0.04316110  0.95343609  0.79093797    -0.02800
C323        C  0.03855832  0.89078094  0.81327104    -0.00200
C324        C  0.10256114  0.83986351  0.80787893    -0.23100
C325        C  0.15328184  0.87723480  0.78515472    -0.23300
C326        C  0.11886532  0.95161251  0.77650986    -0.00300
H327        H  0.12326374  0.79641072  0.82577331     0.13400
H328        H  0.21649220  0.36088099  0.78356229     0.13500
C329        C  0.26982602  0.64549284  0.87403162    -0.25700
C330        C  0.26530930  0.57590421  0.85225827    -0.13700
C331        C  0.26858959  0.49647696  0.86651862     0.36900
C332        C  0.27642951  0.48836389  0.90129435    -0.25100
C333        C  0.28125660  0.55761697  0.92287540    -0.14400
C334        C  0.27790741  0.63700740  0.90900044     0.38000
N335        N  0.28085283  0.70899282  0.93032070    -0.88600
H336        H  0.26512740  0.70706905  0.86387931     0.19100
H337        H  0.28115217  0.92665713  0.91131304     0.19100
N338        N  0.26177906  0.92306241  0.84624814    -0.87600
H339        H  0.22726096  0.74120085  0.92653857     0.36500
H340        H  0.32984112  0.74701296  0.92263931     0.41500
H341        H  0.21297407  0.88729425  0.85565084     0.41200
H342        H  0.31455330  0.88936546  0.84970716     0.36100
C343        C  0.30328110  0.62745084  0.10723137    -0.25700
C344        C  0.28875398  0.54965726  0.09169225    -0.13700
C345        C  0.27013201  0.48086702  0.11229947     0.36900
C346        C  0.26770819  0.49076793  0.14724267    -0.25100
C347        C  0.28254989  0.56815067  0.16266763    -0.14400
C348        C  0.30073497  0.63697774  0.14240340     0.38000
N349        N  0.31753495  0.71640304  0.15757899    -0.88600
H350        H  0.31800401  0.68092975  0.09206683     0.19100
H351        H  0.25232562  0.43736207  0.16231547     0.19100
N352        N  0.25629406  0.39978838  0.09810234    -0.87600
H353        H  0.37606384  0.73622650  0.15029913     0.36500
H354        H  0.27609640  0.75773946  0.14790694     0.41500
H355        H  0.30097608  0.36138239  0.10742566     0.41200
H356        H  0.19910091  0.37722805  0.10612149     0.36100
C357        C  0.98369313  0.85082657  0.90442634    -0.25700
C358        C  0.50029853  0.42887246  0.91941252    -0.13700
C359        C  0.52691031  0.49495351  0.89837705     0.36900
C360        C  0.53400395  0.48183970  0.86379167    -0.25100
C361        C  0.01525459  0.90457128  0.84891391    -0.14400
C362        C  0.99077287  0.83830549  0.86957463     0.38000
N363        N  0.97342745  0.75805850  0.85516750    -0.88600
H364        H  0.96410137  0.79915486  0.91977948     0.19100
H365        H  0.55605909  0.53265392  0.84845766     0.19100
N366        N  0.54602123  0.57674349  0.91089014    -0.87600
H367        H  0.01190194  0.71601488  0.86641523     0.36500
H368        H  0.91326388  0.74093814  0.86118466     0.41500
H369        H  0.59238379  0.57376976  0.92884806     0.41200
H370        H  0.49366310  0.60153708  0.92152460     0.36100
C371        C  0.51875209  0.48695425  0.10879853    -0.25700
C372        C  0.50700938  0.41917650  0.08672403    -0.13700
C373        C  0.00806723  0.83874252  0.09971628     0.36900
C374        C  0.01963043  0.82766950  0.13432118    -0.25100
C375        C  0.03168223  0.39556951  0.15652801    -0.14400
C376        C  0.53178837  0.47610941  0.14318583     0.38000
N377        N  0.54733095  0.54752009  0.16404868    -0.88600
H378        H  0.51633973  0.54957221  0.09949527     0.19100
H379        H  0.02258800  0.76519813  0.14373587     0.19100
N380        N  0.00015000  0.76809181  0.07778179    -0.87600
H381        H  0.49672007  0.58526596  0.16261725     0.36500
H382        H  0.59729669  0.58033793  0.15393786     0.41500
H383        H  0.95079627  0.73137681  0.08602956     0.41200
H384        H  0.05282826  0.73366355  0.08019605     0.36100
C385        C  0.33071391  0.95781391  0.37297397    -0.25700
C386        C  0.36367254  0.88235875  0.36351879    -0.13700
C387        C  0.39862679  0.83209557  0.38824785     0.36900
C388        C  0.41023985  0.86352170  0.42070765    -0.25100
C389        C  0.38542813  0.94277821  0.42932429    -0.14400
C390        C  0.33976881  0.98757425  0.40603010     0.38000
N391        N  0.30370372  0.06363810  0.41566995    -0.88600
H392        H  0.29760280  0.99330897  0.35480185     0.19100
H393        H  0.94254754  0.82739759  0.43889887     0.19100
N394        N  0.42360774  0.74974142  0.38035751    -0.87600
H395        H  0.24102351  0.55716953  0.41166845     0.36500
H396        H  0.32598041  0.60933647  0.39969334     0.41500
H397        H  0.37239933  0.71464101  0.37311706     0.41200
H398        H  0.94353026  0.72096705  0.40206443     0.36100
C399        C  0.95961044  0.95520259  0.60774683    -0.25700
C400        C  0.39803319  0.96696739  0.58404721    -0.13700
C401        C  0.31630657  0.94839662  0.59208057     0.36900
C402        C  0.29717084  0.92154152  0.62454812    -0.25100
C403        C  0.35921776  0.90930717  0.64839871    -0.14400
C404        C  0.44172403  0.92558648  0.63958294     0.38000
N405        N  0.00769172  0.90752313  0.66192497    -0.88600
H406        H  0.02295472  0.96809718  0.60112354     0.19100
H407        H  0.23392043  0.90686808  0.63063902     0.19100
N408        N  0.25430951  0.94885991  0.56672072    -0.87600
H409        H  0.06382068  0.92884417  0.65232698     0.36500
H410        H  0.01083729  0.84310246  0.66289161     0.41500
H411        H  0.20474542  0.98078608  0.57621322     0.41200
H412        H  0.23350975  0.88768095  0.56286857     0.36100
C413        C  0.57151742  0.56107398  0.35900861    -0.25700
C414        C  0.57840035  0.63764047  0.34313676    -0.13700
C415        C  0.59597200  0.70940045  0.36375216     0.36900
C416        C  0.10091430  0.70265720  0.39908016    -0.25100
C417        C  0.58920701  0.62649835  0.41480605    -0.14400
C418        C  0.57845679  0.55449320  0.39424848     0.38000
N419        N  0.57086464  0.47457117  0.40936409    -0.88600
H420        H  0.55954632  0.50588663  0.34391821     0.19100
H421        H  0.10850670  0.75810215  0.41449131     0.19100
N422        N  0.60284030  0.79037801  0.34935502    -0.87600
H423        H  0.55594190  0.92929126  0.39131251     0.36500
H424        H  0.62770733  0.96016110  0.41914878     0.41500
H425        H  0.63169646  0.83214976  0.36606869     0.41200
H426        H  0.04413511  0.81106018  0.34491339     0.36100
C427        C  0.48862951  0.65018772  0.60592062    -0.25700
C428        C  0.56596980  0.65081678  0.59076576    -0.13700
C429        C  0.13477366  0.64788948  0.61193638     0.36900
C430        C  0.62394886  0.64054873  0.64739667    -0.25100
C431        C  0.54533366  0.63918318  0.66259660    -0.14400
C432        C  0.47777020  0.64235503  0.64073683     0.38000
N433        N  0.39663030  0.63995834  0.65354151    -0.88600
H434        H  0.43444431  0.65267265  0.59042083     0.19100
H435        H  0.17738610  0.63984768  0.66338033     0.19100
N436        N  0.21470361  0.66179955  0.59794921    -0.87600
H437        H  0.36524205  0.58893172  0.64288732     0.36500
H438        H  0.36968405  0.69342852  0.64514787     0.41500
H439        H  0.22634842  0.61535401  0.58043092     0.41200
H440        H  0.25849988  0.65745483  0.61666738     0.36100
O441        O  0.48831577  0.46281274  0.53908770    -0.73800
O442        O  0.60804229  0.06625515  0.46880264    -0.73800
O443        O  0.60488191  0.07847433  0.54003563    -0.73900
O444        O  0.48713193  0.45377215  0.47183264    -0.76900
O445        O  0.89337705  0.55070374  0.47033121    -0.73800
O446        O  0.01385994  0.17706696  0.53599071    -0.73800
O447        O  0.01407407  0.16232427  0.46486538    -0.73800
O448        O  0.89535386  0.56110985  0.53832263    -0.73900
Ni449      Ni  0.55123240  0.51262642  0.50492570     1.25400
Ni450      Ni  0.95150571  0.11720103  0.50227689     1.25400
C451        C  0.92541722  0.49653610  0.55135492     0.88400
C452        C  0.57304065  0.12180817  0.45184339     0.88300
C453        C  0.56744642  0.13973889  0.55318194     0.88400
C454        C  0.92190515  0.48305442  0.45934690     0.88500
C455        C  0.82489248  0.01898301  0.77270554     0.87100
C456        C  0.81830076  0.45052816  0.74602755    -0.53100
C457        C  0.88797841  0.43585912  0.72892662     0.10100
C458        C  0.95893470  0.99843528  0.73752372     0.21000
C459        C  0.89971885  0.99802905  0.79403267    -0.53800
C460        C  0.97028707  0.98711125  0.77596355     0.10200
C461        C  0.85356684  0.09586399  0.75343999    -0.53400
C462        C  0.92243854  0.08670155  0.73390997     0.10700
H463        H  0.76266095  0.41655817  0.73959021     0.15200
H464        H  0.01523929  0.48873547  0.72269375     0.01000
H465        H  0.89698884  0.99112278  0.82090155     0.15500
H466        H  0.82340373  0.15381068  0.75715013     0.15300
C467        C  0.84495490  0.99855525  0.23864927     0.87100
C468        C  0.87652815  0.07587785  0.25742609    -0.53100
C469        C  0.94560916  0.06771049  0.27644318     0.10100
C470        C  0.98021358  0.97781215  0.27266499     0.21000
C471        C  0.91720518  0.97354683  0.21659548    -0.53800
C472        C  0.98943306  0.96384730  0.23372135     0.10200
C473        C  0.83769705  0.43152287  0.26507177    -0.53400
C474        C  0.90759316  0.41681624  0.28222582     0.10700
H475        H  0.84807782  0.13429065  0.25335115     0.15200
H476        H  0.03712371  0.46799582  0.28694602     0.01000
H477        H  0.91028604  0.96326197  0.18988166     0.15500
H478        H  0.78157659  0.39703287  0.27030211     0.15300
N479        N  0.90812956  0.34770363  0.30553403    -0.02800
C480        C  0.84867165  0.34919646  0.32955703    -0.00200
C481        C  0.79663810  0.28139451  0.32718567    -0.23100
C482        C  0.83138584  0.22847182  0.30536248    -0.23300
C483        C  0.90089971  0.26808518  0.29286140    -0.00300
H484        H  0.75313874  0.26207275  0.34603625     0.13400
H485        H  0.81566754  0.16322553  0.30512614     0.13500
O486        O  0.99761777  0.00693605  0.03943572    -0.73800
O487        O  0.85791231  0.09327510  0.97219386    -0.73800
O488        O  0.86126246  0.08892110  0.04200100    -0.73900
O489        O  0.99470628  0.01116621  0.97003153    -0.73900
O490        O  0.92295162  0.39214023  0.96825910    -0.73800
O491        O  0.79067073  0.46905079  0.04075070    -0.73800
O492        O  0.78642552  0.47364940  0.97130254    -0.73800
O493        O  0.92712684  0.38671049  0.03791176    -0.73900
Ni494      Ni  0.93038027  0.05435720  0.00595047     1.25400
Ni495      Ni  0.85418247  0.42615528  0.00452099     1.25400
C496        C  0.97924948  0.93636279  0.05218048     0.88400
C497        C  0.80589830  0.04334504  0.95803822     0.88300
C498        C  0.81120971  0.03716236  0.05577846     0.88400
C499        C  0.97434550  0.94332259  0.95486572     0.88500
N500        N  0.76732896  0.01265436  0.22020662    -0.02800
C501        C  0.76405773  0.07760010  0.19899645    -0.00200
C502        C  0.69943119  0.12568813  0.20785663    -0.23100
C503        C  0.65492066  0.08314867  0.23132380    -0.23300
C504        C  0.69247425  0.00870371  0.23571015    -0.00300
H505        H  0.67455608  0.17308780  0.19276288     0.13400
H506        H  0.59170911  0.09541179  0.23640775     0.13500
N507        N  0.98356949  0.14001413  0.29437306    -0.02800
C508        C  0.06233831  0.14225734  0.30569652    -0.00200
C509        C  0.10434902  0.20508881  0.28892724    -0.23100
C510        C  0.04688775  0.25575079  0.27601380    -0.23300
C511        C  0.97238357  0.21808691  0.28243700    -0.00300
H512        H  0.16661939  0.22510915  0.29352492     0.13400
H513        H  0.05781625  0.31963972  0.26970359     0.13500
N514        N  0.56363005  0.43505211  0.21712889    -0.02800
C515        C  0.56300326  0.37968929  0.19100666    -0.00200
C516        C  0.63016096  0.83140675  0.19316425    -0.23100
C517        C  0.67722878  0.86179052  0.21897274    -0.23300
C518        C  0.63954408  0.43164280  0.23149527    -0.00300
H519        H  0.65272625  0.79322593  0.17303097     0.13400
H520        H  0.74087992  0.84711761  0.22108214     0.13500
N521        N  0.74693508  0.02939791  0.79175914    -0.02800
C522        C  0.74108317  0.08799558  0.81644964    -0.00200
C523        C  0.67397772  0.13477272  0.81051325    -0.23100
C524        C  0.63426599  0.10173332  0.78315136    -0.23300
C525        C  0.67275776  0.02881290  0.77556490    -0.00300
H526        H  0.64443550  0.17155223  0.82925502     0.13400
H527        H  0.57200337  0.11600054  0.77707133     0.13500
N528        N  0.89056249  0.36497496  0.70632317    -0.02800
C529        C  0.83859645  0.36664887  0.67987178    -0.00200
C530        C  0.78531068  0.29938627  0.67977589    -0.23100
C531        C  0.81168982  0.24846319  0.70422933    -0.23300
C532        C  0.88052264  0.28658121  0.71869124    -0.00300
H533        H  0.74303920  0.28108097  0.65998024     0.13400
H534        H  0.79280760  0.18403507  0.70508825     0.13500
N535        N  0.96021854  0.15650723  0.71545469    -0.02800
C536        C  0.03547091  0.15442152  0.70029513    -0.00200
C537        C  0.08160267  0.22154118  0.71266990    -0.23100
C538        C  0.02919211  0.27365651  0.72856172    -0.23300
C539        C  0.95286405  0.23581287  0.72726078    -0.00300
H540        H  0.14033885  0.24251948  0.70348307     0.13400
H541        H  0.04213137  0.33868468  0.73294880     0.13500
N542        N  0.54320143  0.45342292  0.79093557    -0.02800
C543        C  0.53860426  0.39076280  0.81326731    -0.00200
C544        C  0.60262003  0.33986153  0.80787799    -0.23100
C545        C  0.65333197  0.37723585  0.78515234    -0.23300
C546        C  0.61890600  0.45160752  0.77650686    -0.00300
H547        H  0.62333765  0.29642478  0.82577555     0.13400
H548        H  0.71643938  0.86086830  0.78356302     0.13500
C549        C  0.76979495  0.14552273  0.87403162    -0.25700
C550        C  0.76527211  0.07593327  0.85225753    -0.13700
C551        C  0.76854053  0.99650625  0.86651774     0.36900
C552        C  0.77638034  0.98838988  0.90129336    -0.25100
C553        C  0.78121649  0.05764168  0.92287493    -0.14400
C554        C  0.77787204  0.13703337  0.90900112     0.38000
N555        N  0.78081812  0.20901451  0.93032413    -0.88600
H556        H  0.76510458  0.20710030  0.86387958     0.19100
H557        H  0.78120736  0.42663327  0.91131486     0.19100
N558        N  0.76184074  0.42303038  0.84625047    -0.87600
H559        H  0.72722995  0.24122789  0.92654192     0.36500
H560        H  0.82981303  0.24703240  0.92264733     0.41500
H561        H  0.71304279  0.38725484  0.85565464     0.41200
H562        H  0.81462022  0.38934255  0.84971139     0.36100
C563        C  0.80323818  0.12747311  0.10723210    -0.25700
C564        C  0.78870662  0.04968481  0.09168994    -0.13700
C565        C  0.77007496  0.98089010  0.11229411     0.36900
C566        C  0.76765025  0.99078373  0.14723811    -0.25100
C567        C  0.78250480  0.06816190  0.16266608    -0.14400
C568        C  0.80069261  0.13699165  0.14240414     0.38000
N569        N  0.81750297  0.21641135  0.15758246    -0.88600
H570        H  0.81797060  0.18095431  0.09207007     0.19100
H571        H  0.75226625  0.93737569  0.16230923     0.19100
N572        N  0.75623642  0.89981444  0.09809348    -0.87600
H573        H  0.87603544  0.23622742  0.15030403     0.36500
H574        H  0.77607219  0.25775539  0.14791067     0.41500
H575        H  0.80091576  0.86140365  0.10741644     0.41200
H576        H  0.69904204  0.87725307  0.10610997     0.36100
C577        C  0.48371536  0.35076858  0.90441886    -0.25700
C578        C  0.00028178  0.92893343  0.91941587    -0.13700
C579        C  0.02688570  0.99500953  0.89837657     0.36900
C580        C  0.03397994  0.98188217  0.86379154    -0.25100
C581        C  0.51528183  0.40453523  0.84890920    -0.14400
C582        C  0.49080736  0.33825795  0.86956636     0.38000
N583        N  0.47349677  0.25800748  0.85515571    -0.88600
H584        H  0.46412352  0.29909129  0.91976922     0.19100
H585        H  0.05603021  0.03269138  0.84845398     0.19100
N586        N  0.04598468  0.07680606  0.91088545    -0.87600
H587        H  0.51199772  0.21598219  0.86639910     0.36500
H588        H  0.41334274  0.24085125  0.86117485     0.41500
H589        H  0.09234879  0.07384487  0.92884319     0.41200
H590        H  0.99362321  0.10159281  0.92152008     0.36100
C591        C  0.01876370  0.98701447  0.10880298    -0.25700
C592        C  0.00700869  0.91924648  0.08672452    -0.13700
C593        C  0.50807044  0.33867810  0.09972154     0.36900
C594        C  0.51963608  0.32762197  0.13432760    -0.25100
C595        C  0.53169155  0.89560444  0.15652566    -0.14400
C596        C  0.03181625  0.97615161  0.14318849     0.38000
N597        N  0.04739987  0.04754896  0.16405410    -0.88600
H598        H  0.01635582  0.04963676  0.09950400     0.19100
H599        H  0.52260315  0.26515551  0.14374688     0.19100
N600        N  0.50015919  0.26801707  0.07779210    -0.87600
H601        H  0.99679825  0.08531032  0.16263507     0.36500
H602        H  0.09736216  0.08035744  0.15393613     0.41500
H603        H  0.45082177  0.23129010  0.08604725     0.41200
H604        H  0.55284964  0.23360565  0.08020358     0.36100
C605        C  0.83072831  0.45784883  0.37298166    -0.25700
C606        C  0.86366045  0.38237769  0.36352884    -0.13700
C607        C  0.89858677  0.33210607  0.38826224     0.36900
C608        C  0.91023079  0.36354691  0.42071856    -0.25100
C609        C  0.88545916  0.44282059  0.42933008    -0.14400
C610        C  0.83979883  0.48761699  0.40603687     0.38000
N611        N  0.80374829  0.56368743  0.41567745    -0.88600
H612        H  0.79762709  0.49335050  0.35480870     0.19100
H613        H  0.44252713  0.32741632  0.43891105     0.19100
N614        N  0.92351176  0.24972874  0.38037934    -0.87600
H615        H  0.74097967  0.05711236  0.41165876     0.36500
H616        H  0.82593451  0.10929031  0.39968694     0.41500
H617        H  0.87228157  0.21466313  0.37313883     0.41200
H618        H  0.44340770  0.22094898  0.40208910     0.36100
C619        C  0.45966623  0.45525453  0.60774836    -0.25700
C620        C  0.89809966  0.46702143  0.58404426    -0.13700
C621        C  0.81637153  0.44844233  0.59206929     0.36900
C622        C  0.79721780  0.42159409  0.62453565    -0.25100
C623        C  0.85925283  0.40935306  0.64839070    -0.14400
C624        C  0.94176384  0.42563154  0.63958180     0.38000
N625        N  0.50772006  0.40754144  0.66192520    -0.88600
H626        H  0.52301430  0.46814312  0.60112924     0.19100
H627        H  0.73396369  0.40692324  0.63062065     0.19100
N628        N  0.75439297  0.44888537  0.56670155    -0.87600
H629        H  0.56384623  0.42893038  0.65234732     0.36500
H630        H  0.51090078  0.34311960  0.66286143     0.41500
H631        H  0.70482483  0.48082308  0.57618302     0.41200
H632        H  0.73359208  0.38770445  0.56285640     0.36100
C633        C  0.07152677  0.06108024  0.35900730    -0.25700
C634        C  0.07840161  0.13764547  0.34313686    -0.13700
C635        C  0.09590526  0.20941463  0.36375354     0.36900
C636        C  0.60078076  0.20268248  0.39908294    -0.25100
C637        C  0.08910806  0.12651593  0.41480785    -0.14400
C638        C  0.07840053  0.05450790  0.39424883     0.38000
N639        N  0.07075042  0.97459202  0.40936430    -0.88600
H640        H  0.05959339  0.00588894  0.34391474     0.19100
H641        H  0.60831036  0.25813881  0.41449146     0.19100
N642        N  0.10270747  0.29039374  0.34935624    -0.87600
H643        H  0.05608703  0.42925805  0.39131273     0.36500
H644        H  0.12783720  0.46017957  0.41914327     0.41500
H645        H  0.13194149  0.33206562  0.36600448     0.41200
H646        H  0.54398510  0.31123016  0.34508893     0.36100
C647        C  0.98855005  0.15017235  0.60591976    -0.25700
C648        C  0.06588427  0.15082380  0.59075969    -0.13700
C649        C  0.63470062  0.14791378  0.61192437     0.36900
C650        C  0.12389438  0.14058477  0.64738531    -0.25100
C651        C  0.04528484  0.13919286  0.66259080    -0.14400
C652        C  0.97770817  0.14233511  0.64073610     0.38000
N653        N  0.89657161  0.13990157  0.65354547    -0.88600
H654        H  0.93435634  0.15263562  0.59042371     0.19100
H655        H  0.67734041  0.13990019  0.66336435     0.19100
N656        N  0.71462400  0.16181421  0.59792899    -0.87600
H657        H  0.86519224  0.08887601  0.64288632     0.36500
H658        H  0.86960470  0.19336632  0.64515840     0.41500
H659        H  0.72627345  0.11533085  0.58042794     0.41200
H660        H  0.75843168  0.15752869  0.61664678     0.36100
O661        O  0.48825781  0.96279098  0.53909139    -0.73800
O662        O  0.60813779  0.56624880  0.46880372    -0.73800
O663        O  0.60496724  0.57846063  0.54004043    -0.73900
O664        O  0.48707317  0.95374027  0.47183662    -0.76900
O665        O  0.89328978  0.05064360  0.47033144    -0.73800
O666        O  0.01398949  0.67709215  0.53599128    -0.73800
O667        O  0.01419904  0.66234671  0.46486498    -0.73800
O668        O  0.89525503  0.06104736  0.53832193    -0.73900
Ni669      Ni  0.55115795  0.01261856  0.50492649     1.25400
Ni670      Ni  0.95161742  0.61724501  0.50227685     1.25400
C671        C  0.92534209  0.99648836  0.55135644     0.88400
C672        C  0.57315081  0.62180819  0.45184291     0.88300
C673        C  0.56754962  0.63973851  0.55318643     0.88400
C674        C  0.92184298  0.98300678  0.45934724     0.88500
C675        C  0.82493183  0.51897384  0.77270698     0.87100
C676        C  0.81826794  0.95052127  0.74603161    -0.53100
C677        C  0.88794872  0.93585052  0.72893202     0.10100
C678        C  0.95897065  0.49843186  0.73752270     0.21000
C679        C  0.89975590  0.49800470  0.79403213    -0.53800
C680        C  0.97032401  0.48709395  0.77596213     0.10200
C681        C  0.85361392  0.59586219  0.75344926    -0.53400
C682        C  0.92247906  0.58669992  0.73391518     0.10700
H683        H  0.76263140  0.91654336  0.73959655     0.15200
H684        H  0.01520489  0.98873637  0.72269607     0.01000
H685        H  0.89702675  0.49109232  0.82090053     0.15500
H686        H  0.82346076  0.65381151  0.75716765     0.15300
C687        C  0.84495047  0.49854279  0.23865062     0.87100
C688        C  0.87652709  0.57586780  0.25742364    -0.53100
C689        C  0.94560961  0.56770468  0.27643984     0.10100
C690        C  0.98021340  0.47780855  0.27266471     0.21000
C691        C  0.91719723  0.47352282  0.21659697    -0.53800
C692        C  0.98942769  0.46383189  0.23372179     0.10200
C693        C  0.83770073  0.93152626  0.26506664    -0.53400
C694        C  0.90759240  0.91681352  0.28222097     0.10700
H695        H  0.84807224  0.63427826  0.25334889     0.15200
H696        H  0.03712212  0.96799423  0.28694683     0.01000
H697        H  0.91027408  0.46322375  0.18988425     0.15500
H698        H  0.78158127  0.89703147  0.27029371     0.15300
N699        N  0.90812237  0.84768914  0.30552411    -0.02800
C700        C  0.84867297  0.84917496  0.32955022    -0.00200
C701        C  0.79665251  0.78136204  0.32718761    -0.23100
C702        C  0.83139414  0.72844598  0.30536090    -0.23300
C703        C  0.90089350  0.76807119  0.29285082    -0.00300
H704        H  0.75318095  0.76203176  0.34604770     0.13400
H705        H  0.81569264  0.66319577  0.30513090     0.13500
O706        O  0.99764150  0.50685632  0.03943228    -0.73800
O707        O  0.85795115  0.59324065  0.97219553    -0.73800
O708        O  0.86130610  0.58887592  0.04200124    -0.73900
O709        O  0.99472620  0.51109959  0.97002917    -0.73900
O710        O  0.92294635  0.89219766  0.96826303    -0.73800
O711        O  0.79064408  0.96908625  0.04074836    -0.73800
O712        O  0.78640353  0.97367389  0.97130204    -0.73800
O713        O  0.92712037  0.88678025  0.03791474    -0.73900
Ni714      Ni  0.93041259  0.55429932  0.00594962     1.25400
Ni715      Ni  0.85416907  0.92620187  0.00452226     1.25400
C716        C  0.97926176  0.43628611  0.05217764     0.88400
C717        C  0.80593051  0.54331939  0.95803944     0.88300
C718        C  0.81124823  0.53712569  0.05578013     0.88400
C719        C  0.97435821  0.44325928  0.95486251     0.88500
N720        N  0.76732742  0.51265061  0.22020738    -0.02800
C721        C  0.76407023  0.57759289  0.19899452    -0.00200
C722        C  0.69943573  0.62568059  0.20784383    -0.23100
C723        C  0.65491194  0.58314863  0.23130929    -0.23300
C724        C  0.69246673  0.50870718  0.23570651    -0.00300
H725        H  0.67457203  0.67307676  0.19274449     0.13400
H726        H  0.59169779  0.59541438  0.23638766     0.13500
N727        N  0.98356716  0.64000973  0.29436860    -0.02800
C728        C  0.06233385  0.64225732  0.30569464    -0.00200
C729        C  0.10434489  0.70508339  0.28892123    -0.23100
C730        C  0.04688356  0.75573935  0.27600226    -0.23300
C731        C  0.97237985  0.71807657  0.28242744    -0.00300
H732        H  0.16661578  0.72510619  0.29351795     0.13400
H733        H  0.05781015  0.81962779  0.26969031     0.13500
N734        N  0.56363347  0.93506223  0.21712814    -0.02800
C735        C  0.56299935  0.87970361  0.19100450    -0.00200
C736        C  0.63017271  0.33140469  0.19316757    -0.23100
C737        C  0.67723081  0.36178991  0.21897846    -0.23300
C738        C  0.63954814  0.93164372  0.23149302    -0.00300
H739        H  0.65274485  0.29322657  0.17303508     0.13400
H740        H  0.74088196  0.34712021  0.22109058     0.13500
N741        N  0.74697349  0.52938355  0.79175945    -0.02800
C742        C  0.74112133  0.58797428  0.81645124    -0.00200
C743        C  0.67402536  0.63476463  0.81051283    -0.23100
C744        C  0.63431211  0.60173074  0.78314986    -0.23300
C745        C  0.67279849  0.52880742  0.77556369    -0.00300
H746        H  0.64449328  0.67155952  0.82925221     0.13400
H747        H  0.57205191  0.61600391  0.77706800     0.13500
N748        N  0.89054463  0.86495592  0.70633357    -0.02800
C749        C  0.83857736  0.86660703  0.67988206    -0.00200
C750        C  0.78531351  0.79932876  0.67978817    -0.23100
C751        C  0.81170380  0.74842209  0.70424452    -0.23300
C752        C  0.88052873  0.78656183  0.71870455    -0.00300
H753        H  0.74305269  0.78100479  0.65999145     0.13400
H754        H  0.79284008  0.68398903  0.70510330     0.13500
N755        N  0.96025295  0.65650379  0.71545833    -0.02800
C756        C  0.03550776  0.65442092  0.70030038    -0.00200
C757        C  0.08162887  0.72154913  0.71267309    -0.23100
C758        C  0.02921110  0.77366312  0.72856176    -0.23300
C759        C  0.95288909  0.73580884  0.72726369    -0.00300
H760        H  0.14036217  0.74253068  0.70348598     0.13400
H761        H  0.04214048  0.83869382  0.73294578     0.13500
N762        N  0.54316117  0.95343569  0.79093788    -0.02800
C763        C  0.53855857  0.89078057  0.81327097    -0.00200
C764        C  0.60256170  0.83986351  0.80787892    -0.23100
C765        C  0.65328223  0.87723481  0.78515464    -0.23300
C766        C  0.61886543  0.95161236  0.77650976    -0.00300
H767        H  0.62326455  0.79641109  0.82577340     0.13400
H768        H  0.71649273  0.36088118  0.78356239     0.13500
C769        C  0.76982583  0.64549332  0.87403160    -0.25700
C770        C  0.76530923  0.57590460  0.85225828    -0.13700
C771        C  0.76858939  0.49647742  0.86651869     0.36900
C772        C  0.77642899  0.48836437  0.90129443    -0.25100
C773        C  0.78125610  0.55761749  0.92287544    -0.14400
C774        C  0.77790707  0.63700793  0.90900044     0.38000
N775        N  0.78085217  0.70899338  0.93032068    -0.88600
H776        H  0.76512714  0.70706952  0.86387927     0.19100
H777        H  0.78115193  0.92665743  0.91131311     0.19100
N778        N  0.76177892  0.92306252  0.84624820    -0.87600
H779        H  0.72726023  0.74120122  0.92653846     0.36500
H780        H  0.82984040  0.74701369  0.92263936     0.41500
H781        H  0.71297385  0.88729457  0.85565088     0.41200
H782        H  0.81455310  0.88936541  0.84970728     0.36100
C783        C  0.80328090  0.62745084  0.10723138    -0.25700
C784        C  0.78875347  0.54965734  0.09169224    -0.13700
C785        C  0.77013120  0.48086718  0.11229946     0.36900
C786        C  0.76770758  0.49076804  0.14724267    -0.25100
C787        C  0.78254968  0.56815069  0.16266763    -0.14400
C788        C  0.80073494  0.63697772  0.14240341     0.38000
N789        N  0.81753541  0.71640294  0.15757900    -0.88600
H790        H  0.81800407  0.68092970  0.09206684     0.19100
H791        H  0.75232481  0.43736223  0.16231546     0.19100
N792        N  0.75629266  0.39978867  0.09810231    -0.87600
H793        H  0.87606432  0.73622606  0.15029909     0.36500
H794        H  0.77609710  0.75773965  0.14790695     0.41500
H795        H  0.80097456  0.36138235  0.10742557     0.41200
H796        H  0.69909947  0.37722868  0.10612150     0.36100
C797        C  0.48369368  0.85082597  0.90442633    -0.25700
C798        C  0.00029846  0.42887308  0.91941252    -0.13700
C799        C  0.02691008  0.49495410  0.89837701     0.36900
C800        C  0.03400349  0.48184023  0.86379163    -0.25100
C801        C  0.51525474  0.90457081  0.84891385    -0.14400
C802        C  0.49077319  0.83830495  0.86957460     0.38000
N803        N  0.47342762  0.75805795  0.85516748    -0.88600
H804        H  0.46410210  0.79915425  0.91977950     0.19100
H805        H  0.05605850  0.53265446  0.84845759     0.19100
N806        N  0.04602137  0.57674402  0.91089012    -0.87600
H807        H  0.51190226  0.71601431  0.86641514     0.36500
H808        H  0.41326419  0.74093755  0.86118474     0.41500
H809        H  0.09238373  0.57377016  0.92884802     0.41200
H810        H  0.99366316  0.60153789  0.92152458     0.36100
C811        C  0.01875205  0.48695510  0.10879861    -0.25700
C812        C  0.00700917  0.41917741  0.08672406    -0.13700
C813        C  0.50806712  0.83874197  0.09971631     0.36900
C814        C  0.51963051  0.82766895  0.13432119    -0.25100
C815        C  0.53168262  0.39556902  0.15652800    -0.14400
C816        C  0.03178805  0.47611005  0.14318593     0.38000
N817        N  0.04733047  0.54752061  0.16404887    -0.88600
H818        H  0.01634005  0.54957312  0.09949538     0.19100
H819        H  0.52258813  0.76519759  0.14373589     0.19100
N820        N  0.50014982  0.76809129  0.07778181    -0.87600
H821        H  0.99671954  0.58526644  0.16261749     0.36500
H822        H  0.09729620  0.58033864  0.15393813     0.41500
H823        H  0.45079631  0.73137621  0.08602961     0.41200
H824        H  0.55282828  0.73366314  0.08019603     0.36100
C825        C  0.83071393  0.95781407  0.37297401    -0.25700
C826        C  0.86367249  0.88235887  0.36351886    -0.13700
C827        C  0.89862638  0.83209558  0.38824797     0.36900
C828        C  0.91023936  0.86352174  0.42070777    -0.25100
C829        C  0.88542801  0.94277842  0.42932433    -0.14400
C830        C  0.83976877  0.98757446  0.40603013     0.38000
N831        N  0.80370354  0.06363822  0.41566999    -0.88600
H832        H  0.79760299  0.99330918  0.35480187     0.19100
H833        H  0.44254817  0.82739753  0.43889870     0.19100
N834        N  0.92360760  0.74974156  0.38035760    -0.87600
H835        H  0.74102424  0.55717049  0.41166860     0.36500
H836        H  0.82598144  0.60933713  0.39969351     0.41500
H837        H  0.87239938  0.71464112  0.37311693     0.41200
H838        H  0.44353057  0.72096704  0.40206435     0.36100
C839        C  0.45961024  0.95520243  0.60774695    -0.25700
C840        C  0.89803337  0.96696728  0.58404705    -0.13700
C841        C  0.81630681  0.94839626  0.59208034     0.36900
C842        C  0.79717104  0.92154140  0.62454791    -0.25100
C843        C  0.85921793  0.90930751  0.64839860    -0.14400
C844        C  0.94172421  0.92558703  0.63958287     0.38000
N845        N  0.50769159  0.90752190  0.66192489    -0.88600
H846        H  0.52295454  0.96809692  0.60112367     0.19100
H847        H  0.73392064  0.90686783  0.63063877     0.19100
N848        N  0.75430990  0.94885920  0.56672041    -0.87600
H849        H  0.56382041  0.92884369  0.65232703     0.36500
H850        H  0.51083744  0.84310118  0.66289102     0.41500
H851        H  0.70474561  0.98078534  0.57621288     0.41200
H852        H  0.73351035  0.88768032  0.56286822     0.36100
C853        C  0.07151716  0.56107444  0.35900866    -0.25700
C854        C  0.07840000  0.63764094  0.34313684    -0.13700
C855        C  0.09597160  0.70940090  0.36375223     0.36900
C856        C  0.60091466  0.70265681  0.39908008    -0.25100
C857        C  0.08920669  0.62649869  0.41480613    -0.14400
C858        C  0.07845662  0.55449356  0.39424854     0.38000
N859        N  0.07086460  0.47457141  0.40936408    -0.88600
H860        H  0.05954618  0.50588713  0.34391825     0.19100
H861        H  0.60850699  0.75810181  0.41449122     0.19100
N862        N  0.10284051  0.79037847  0.34935512    -0.87600
H863        H  0.05594123  0.92929179  0.39131250     0.36500
H864        H  0.12770694  0.96016143  0.41914872     0.41500
H865        H  0.13169560  0.83215033  0.36606889     0.41200
H866        H  0.54413498  0.81106000  0.34491385     0.36100
C867        C  0.98862949  0.65018784  0.60592073    -0.25700
C868        C  0.06596980  0.65081713  0.59076590    -0.13700
C869        C  0.63477360  0.64788923  0.61193628     0.36900
C870        C  0.12394895  0.64054876  0.64739677    -0.25100
C871        C  0.04533371  0.63918324  0.66259669    -0.14400
C872        C  0.97777019  0.64235503  0.64073693     0.38000
N873        N  0.89663029  0.63995833  0.65354164    -0.88600
H874        H  0.93444429  0.65267269  0.59042092     0.19100
H875        H  0.67738598  0.63984773  0.66338023     0.19100
N876        N  0.71470360  0.66179919  0.59794915    -0.87600
H877        H  0.86524196  0.58893161  0.64288751     0.36500
H878        H  0.86968393  0.69342840  0.64514797     0.41500
H879        H  0.72634830  0.61535344  0.58043093     0.41200
H880        H  0.75849976  0.65745451  0.61666732     0.36100
loop_ 
_geom_bond_atom_site_label_1 
_geom_bond_atom_site_label_2 
_geom_bond_distance 
_geom_bond_site_symmetry_2 
_ccdc_geom_bond_type 
O1           Ni9   1.881   1_655  S
O1          C451   1.275       .  A
O2         Ni229   1.916       .  S
O2           C12   1.280       .  A
O3         Ni229   1.941       .  S
O3           C13   1.286       .  A
O4           Ni9   1.910   1_655  S
O4          C454   1.284       .  A
O5         Ni230   1.894       .  S
O5           C14   1.275       .  A
O6          Ni10   1.920       .  S
O6          C453   1.283       .  A
O7          Ni10   1.945       .  S
O7          C452   1.289       .  A
O8         Ni230   1.927       .  S
O8           C11   1.283       .  A
Ni9         O222   1.916       .  S
Ni9         O223   1.941       .  S
Ni9        Ni670   2.388   1_455  S
Ni10        O225   1.894       .  S
Ni10        O228   1.927       .  S
Ni10       Ni669   2.388       .  S
C11         O441   1.275       .  A
C11         C180   1.458       .  S
C12         O447   1.289       .  A
C12         C637   1.501       .  S
C13         O446   1.283       .  A
C13         C648   1.505       .  S
C14         O444   1.284       .  A
C14         C169   1.471       .  S
C15          C21   1.530       .  S
C15          C19   1.539   1_545  S
C15         C236   1.526   1_545  S
C15          N81   1.498       .  S
C16         C235   1.526       .  S
C16          H23   1.078       .  S
C16          C17   1.354       .  D
C17         C238   1.552       .  S
C17          N88   1.450       .  S
C18          C22   1.572   1_565  S
C18          C20   1.556       .  S
C18         C237   1.552       .  S
C18         H244   1.109       .  S
C19          H25   1.078       .  S
C19          C20   1.376       .  D
C20         N762   1.457       .  S
C21          H26   1.081       .  S
C21          C22   1.381       .  D
C22          N95   1.475       .  S
H24         C238   1.109       .  S
C27          C28   1.525   1_565  S
C27          C31   1.535       .  S
C27         C253   1.522       .  S
C27          N60   1.493   1_565  S
C28          H35   1.080       .  S
C28          C29   1.372       .  D
C29          C30   1.581   1_545  S
C29          N67   1.482       .  S
C30          C32   1.572       .  S
C30         C254   1.571       .  S
C30         H256   1.108       .  S
C31          H37   1.080       .  S
C31          C32   1.379       .  D
C32         N734   1.468       .  S
C33         C247   1.522       .  S
C33          H38   1.082       .  S
C33          C34   1.361       .  D
C34         C250   1.571       .  S
C34          N39   1.462       .  S
H36         C250   1.108       .  S
N39          C43   1.378       .  A
N39          C40   1.366       .  A
C40         C166   1.467       .  S
C40          C41   1.370       .  A
C41          C42   1.350       .  A
C41          H44   1.077       .  S
C42          C43   1.385       .  A
C42          H45   1.078       .  S
C43          C71   1.498       .  S
O46         Ni54   1.912       .  S
O46          C56   1.282   1_545  A
O47         Ni54   1.917   1_556  S
O47          C57   1.281       .  A
O48         Ni54   1.917       .  S
O48          C58   1.282       .  A
O49         Ni54   1.914   1_556  S
O49          C59   1.280   1_545  A
O50         Ni55   1.917   1_556  S
O50         C279   1.282       .  A
O51         Ni55   1.914       .  S
O51         C278   1.282       .  A
O52         Ni55   1.910   1_556  S
O52         C277   1.282       .  A
O53         Ni55   1.915       .  S
O53         C276   1.281       .  A
Ni54       Ni275   2.385   1_545  S
Ni55       Ni274   2.385       .  S
C56         O273   1.281       .  A
C56         C152   1.481       .  S
C57         O272   1.282   1_545  A
C57         C113   1.480       .  S
C58         O271   1.282   1_545  A
C58         C124   1.490       .  S
C59         O270   1.282       .  A
C59         C138   1.492       .  S
N60          C64   1.373       .  A
N60          C61   1.358       .  A
C61         C127   1.485       .  S
C61          C62   1.376       .  A
C62          C63   1.365       .  A
C62          H65   1.070       .  S
C63          C64   1.381       .  A
C63          H66   1.078       .  S
C64         C298   1.503   1_545  S
N67          C71   1.372       .  A
N67          C68   1.365       .  A
C68         C194   1.517       .  S
C68          C69   1.388       .  A
C69          C70   1.370       .  A
C69          H72   1.075       .  S
C70          C71   1.372       .  A
C70          H73   1.076       .  S
N74         C692   1.468   1_455  S
N74          C78   1.371       .  A
N74          C75   1.364       .  A
C75         C375   1.494       .  S
C75         C296   1.371       .  A
C76          C77   1.362       .  A
C76         C295   1.371       .  A
C76          H79   1.078       .  S
C77         C298   1.390       .  A
C77          H80   1.079       .  S
C78         C284   1.503       .  S
C78         C297   1.390       .  A
N81          C85   1.375       .  A
N81          C82   1.362       .  A
C82         C110   1.497       .  S
C82          C83   1.375       .  A
C83          C84   1.363       .  A
C83          H86   1.073       .  S
C84          C85   1.384       .  A
C84          H87   1.080       .  S
C85         C326   1.507   1_545  S
N88          C92   1.371       .  A
N88          C89   1.355       .  A
C89         C183   1.473       .  S
C89          C90   1.373       .  A
C90          C91   1.362       .  A
C90          H93   1.081       .  S
C91          C92   1.389       .  A
C91          H94   1.078       .  S
C92          C99   1.503       .  S
N95          C99   1.369       .  A
N95          C96   1.373       .  A
C96         C211   1.528       .  S
C96          C97   1.388       .  A
C97          C98   1.370       .  A
C97         H100   1.076       .  S
C98          C99   1.375       .  A
C98         H101   1.078       .  S
N102        C680   1.457   1_455  S
N102        C106   1.367       .  A
N102        C103   1.357       .  A
C103        C141   1.486       .  S
C103        C104   1.368       .  A
C104        C105   1.363       .  A
C104        H107   1.069       .  S
C105        C106   1.390       .  A
C105        H328   1.077       .  S
C106        C305   1.507       .  S
H108        C325   1.077       .  S
C109        C110   1.412       .  A
C109        C114   1.408       .  A
C109        H116   1.084       .  S
C110        C111   1.413   1_545  A
C111        C112   1.399       .  A
C111        N338   1.429       .  S
C112        C113   1.403   1_565  A
C112        H337   1.084       .  S
C113        C114   1.406       .  A
C114        N115   1.431       .  S
N115        H119   1.046       .  S
N115        H120   1.044       .  S
H117        C332   1.084       .  S
N118        C331   1.429       .  S
N118        H121   1.044       .  S
N118        H122   1.045       .  S
C123        C124   1.408       .  A
C123        C128   1.408       .  A
C123        H130   1.082       .  S
C124        C125   1.416   1_545  A
C125        C126   1.399       .  A
C125        N132   1.432       .  S
C126        C127   1.401   1_565  A
C126        H131   1.081       .  S
C127        C128   1.407       .  A
C128        N129   1.431       .  S
N129        H133   1.043       .  S
N129        H134   1.044       .  S
N132        H135   1.045       .  S
N132        H136   1.046       .  S
C137        C142   1.405       .  A
C137        C798   1.409   1_655  A
C137        H144   1.082       .  S
C138        C139   1.424       .  A
C138        C797   1.409       .  A
C139        C140   1.396       .  A
C139        N146   1.433   1_565  S
C140        C801   1.402       .  A
C140        H145   1.083   1_565  S
C141        C142   1.408   1_455  A
C141        C800   1.402       .  A
C142        N143   1.432       .  S
N143        H147   1.045   1_655  S
N143        H148   1.044       .  S
N146        H149   1.045       .  S
N146        H150   1.045       .  S
C151        C152   1.405       .  A
C151        C156   1.400       .  A
C151        H158   1.084   1_565  S
C152        C813   1.407       .  A
C153        C154   1.405       .  A
C153        C812   1.407       .  A
C153        N160   1.432       .  S
C154        C375   1.410       .  A
C154        H159   1.084       .  S
C155        C295   1.494       .  S
C155        C374   1.410       .  A
C155        C596   1.412       .  A
C156        C595   1.412       .  A
C156        N157   1.430   1_565  S
N157        H161   1.046       .  S
N157        H162   1.045       .  S
N160        H163   1.043   1_455  S
N160        H164   1.046       .  S
C165        C166   1.396       .  A
C165        C170   1.402       .  A
C165        H172   1.084       .  S
C166        C167   1.416       .  A
C167        C168   1.394       .  A
C167        N174   1.436       .  S
C168        C169   1.395       .  A
C168        H613   1.084       .  S
C169        C170   1.412       .  A
C170        N171   1.429       .  S
N171        H395   1.041       .  S
N171        H396   1.038       .  S
H173        C608   1.084       .  S
N174        H177   1.037       .  S
N174        H618   1.044       .  S
H175        N391   1.041       .  S
H176        N391   1.038       .  S
H178        N614   1.044       .  S
C179        C620   1.400       .  A
C179        C624   1.389       .  A
C179        H186   1.085   1_655  S
C180        C181   1.400       .  A
C180        C619   1.400       .  A
C181        C182   1.402       .  A
C181        N188   1.432       .  S
C182        C183   1.410       .  A
C182        H187   1.084       .  S
C183        C184   1.414       .  A
C184        C619   1.389       .  A
C184        N625   1.438       .  S
N185        C624   1.438   1_455  S
N185        H189   1.046       .  S
N185        H190   1.045       .  S
N188        H191   1.043       .  S
N188        H192   1.045       .  S
C193        C194   1.398       .  A
C193        C198   1.414       .  A
C193        H200   1.082       .  S
C194        C195   1.434       .  A
C195        C636   1.415       .  A
C195        N202   1.437       .  S
C196        C635   1.415       .  A
C196        C637   1.396       .  A
C196        H201   1.084       .  S
C197        C452   1.501       .  S
C197        C198   1.421       .  A
C197        C636   1.396       .  A
C198        N199   1.434   1_545  S
N199        H423   1.043       .  S
N199        H424   1.045       .  S
N202        H205   1.045       .  S
N202        H646   1.043       .  S
H203        N419   1.043       .  S
H204        N419   1.045       .  S
H206        N642   1.043       .  S
C207        C208   1.403       .  A
C207        C212   1.405       .  A
C207        H214   1.083       .  S
C208        C453   1.505       .  S
C208        C649   1.409       .  A
C209        C648   1.409       .  A
C209        C650   1.429       .  A
C209        N216   1.435       .  S
C210        C211   1.422       .  A
C210        C649   1.429       .  A
C210        H655   1.082       .  S
C211        C212   1.410       .  A
C212        N213   1.423       .  S
N213        H217   1.044       .  S
N213        H218   1.041       .  S
H215        C650   1.082       .  S
N216        H219   1.040       .  S
N216        H220   1.039       .  S
O221       Ni229   1.881   1_665  S
O221        C671   1.275       .  A
O222        C232   1.280       .  A
O223        C233   1.286       .  A
O224       Ni229   1.910   1_665  S
O224        C674   1.284       .  A
O225        C234   1.275   1_545  A
O226       Ni230   1.920       .  S
O226        C673   1.283       .  A
O227       Ni230   1.945       .  S
O227        C672   1.289       .  A
O228        C231   1.283   1_545  A
Ni229      Ni450   2.388   1_455  S
Ni230      Ni449   2.388       .  S
C231        O661   1.275       .  A
C231        C400   1.458       .  S
C232        O667   1.289       .  A
C232        C857   1.501       .  S
C233        O666   1.283       .  A
C233        C868   1.505       .  S
C234        O664   1.284       .  A
C234        C389   1.471       .  S
C235        C241   1.530       .  S
C235        C239   1.539       .  S
C235        N301   1.498       .  S
C236        H243   1.078       .  S
C236        C237   1.354       .  D
C237        N308   1.450       .  S
C238        C242   1.572       .  S
C238        C240   1.556       .  S
C239        H245   1.078       .  S
C239        C240   1.376       .  D
C240        N542   1.457       .  S
C241        H246   1.081       .  S
C241        C242   1.381       .  D
C242        N315   1.475       .  S
C247        C248   1.525       .  S
C247        C251   1.535       .  S
C247        N280   1.493       .  S
C248        H255   1.080       .  S
C248        C249   1.372       .  D
C249        C250   1.581       .  S
C249        N287   1.482       .  S
C250        C252   1.572       .  S
C251        H257   1.080       .  S
C251        C252   1.379       .  D
C252        N514   1.468       .  S
C253        H258   1.082       .  S
C253        C254   1.361       .  D
C254        N259   1.462       .  S
N259        C263   1.378       .  A
N259        C260   1.366       .  A
C260        C386   1.467       .  S
C260        C261   1.370       .  A
C261        C262   1.350       .  A
C261        H264   1.077       .  S
C262        C263   1.385       .  A
C262        H265   1.078       .  S
C263        C291   1.498       .  S
O266       Ni274   1.912       .  S
O266        C276   1.282       .  A
O267       Ni274   1.917   1_556  S
O267        C277   1.281       .  A
O268       Ni274   1.917       .  S
O268        C278   1.282       .  A
O269       Ni274   1.914   1_556  S
O269        C279   1.280       .  A
O270       Ni275   1.917   1_556  S
O271       Ni275   1.914       .  S
O272       Ni275   1.910   1_556  S
O273       Ni275   1.915       .  S
C276        C372   1.481       .  S
C277        C333   1.480       .  S
C278        C344   1.490       .  S
C279        C358   1.492       .  S
N280        C284   1.373       .  A
N280        C281   1.358       .  A
C281        C347   1.485       .  S
C281        C282   1.376       .  A
C282        C283   1.365       .  A
C282        H285   1.070       .  S
C283        C284   1.381       .  A
C283        H286   1.078       .  S
N287        C291   1.372       .  A
N287        C288   1.365       .  A
C288        C414   1.517       .  S
C288        C289   1.388       .  A
C289        C290   1.370       .  A
C289        H292   1.075       .  S
C290        C291   1.372       .  A
C290        H293   1.076       .  S
N294        C472   1.468   1_455  S
N294        C298   1.371       .  A
N294        C295   1.364       .  A
C296        C297   1.362       .  A
C296        H299   1.078       .  S
C297        H300   1.079       .  S
N301        C305   1.375       .  A
N301        C302   1.362       .  A
C302        C330   1.497       .  S
C302        C303   1.375       .  A
C303        C304   1.363       .  A
C303        H306   1.073       .  S
C304        C305   1.384       .  A
C304        H307   1.080       .  S
N308        C312   1.371       .  A
N308        C309   1.355       .  A
C309        C403   1.473       .  S
C309        C310   1.373       .  A
C310        C311   1.362       .  A
C310        H313   1.081       .  S
C311        C312   1.389       .  A
C311        H314   1.078       .  S
C312        C319   1.503       .  S
N315        C319   1.369       .  A
N315        C316   1.373       .  A
C316        C431   1.528       .  S
C316        C317   1.388       .  A
C317        C318   1.370       .  A
C317        H320   1.076       .  S
C318        C319   1.375       .  A
C318        H321   1.078       .  S
N322        C460   1.457   1_455  S
N322        C326   1.367       .  A
N322        C323   1.357       .  A
C323        C361   1.486       .  S
C323        C324   1.368       .  A
C324        C325   1.363       .  A
C324        H327   1.069       .  S
C325        C326   1.390       .  A
C329        C330   1.412       .  A
C329        C334   1.408       .  A
C329        H336   1.084       .  S
C330        C331   1.413       .  A
C331        C332   1.399       .  A
C332        C333   1.403       .  A
C333        C334   1.406       .  A
C334        N335   1.431       .  S
N335        H339   1.046       .  S
N335        H340   1.044       .  S
N338        H341   1.044       .  S
N338        H342   1.045       .  S
C343        C344   1.408       .  A
C343        C348   1.408       .  A
C343        H350   1.082       .  S
C344        C345   1.416       .  A
C345        C346   1.399       .  A
C345        N352   1.432       .  S
C346        C347   1.401       .  A
C346        H351   1.081       .  S
C347        C348   1.407       .  A
C348        N349   1.431       .  S
N349        H353   1.043       .  S
N349        H354   1.044       .  S
N352        H355   1.045       .  S
N352        H356   1.046       .  S
C357        C578   1.409   1_655  A
C357        C362   1.405       .  A
C357        H364   1.082       .  S
C358        C577   1.409       .  A
C358        C359   1.424       .  A
C359        C360   1.396       .  A
C359        N366   1.433       .  S
C360        C581   1.402       .  A
C360        H365   1.083       .  S
C361        C580   1.402       .  A
C361        C362   1.408   1_455  A
C362        N363   1.432       .  S
N363        H367   1.045   1_655  S
N363        H368   1.044       .  S
N366        H369   1.045       .  S
N366        H370   1.045       .  S
C371        C372   1.405       .  A
C371        C376   1.400       .  A
C371        H378   1.084       .  S
C372        C593   1.407       .  A
C373        C592   1.407       .  A
C373        C374   1.405       .  A
C373        N380   1.432       .  S
C374        H379   1.084       .  S
C375        C816   1.412       .  A
C376        C815   1.412       .  A
C376        N377   1.430       .  S
N377        H381   1.046       .  S
N377        H382   1.045       .  S
N380        H383   1.043   1_455  S
N380        H384   1.046       .  S
C385        C386   1.396       .  A
C385        C390   1.402       .  A
C385        H392   1.084       .  S
C386        C387   1.416       .  A
C387        C388   1.394       .  A
C387        N394   1.436       .  S
C388        C389   1.395       .  A
C388        H833   1.084       .  S
C389        C390   1.412       .  A
C390        N391   1.429   1_565  S
H393        C828   1.084       .  S
N394        H397   1.037       .  S
N394        H838   1.044       .  S
H398        N834   1.044       .  S
C399        C840   1.400       .  A
C399        C844   1.389       .  A
C399        H406   1.085   1_655  S
C400        C839   1.400       .  A
C400        C401   1.400       .  A
C401        C402   1.402       .  A
C401        N408   1.432       .  S
C402        C403   1.410       .  A
C402        H407   1.084       .  S
C403        C404   1.414       .  A
C404        C839   1.389       .  A
C404        N845   1.438       .  S
N405        C844   1.438   1_455  S
N405        H409   1.046       .  S
N405        H410   1.045       .  S
N408        H411   1.043       .  S
N408        H412   1.045       .  S
C413        C414   1.398       .  A
C413        C418   1.414       .  A
C413        H420   1.082       .  S
C414        C415   1.434       .  A
C415        C856   1.415       .  A
C415        N422   1.437       .  S
C416        C855   1.415       .  A
C416        C857   1.396       .  A
C416        H421   1.084       .  S
C417        C672   1.501       .  S
C417        C856   1.396       .  A
C417        C418   1.421       .  A
C418        N419   1.434       .  S
N422        H425   1.045       .  S
N422        H866   1.043       .  S
H426        N862   1.043       .  S
C427        C428   1.403       .  A
C427        C432   1.405       .  A
C427        H434   1.083       .  S
C428        C673   1.505       .  S
C428        C869   1.409       .  A
C429        C868   1.409       .  A
C429        C870   1.429       .  A
C429        N436   1.435       .  S
C430        C869   1.429       .  A
C430        C431   1.422       .  A
C430        H875   1.082       .  S
C431        C432   1.410       .  A
C432        N433   1.423       .  S
N433        H437   1.044       .  S
N433        H438   1.041       .  S
H435        C870   1.082       .  S
N436        H439   1.040       .  S
N436        H440   1.039       .  S
O441       Ni449   1.881       .  S
O442       Ni669   1.916       .  S
O442        C452   1.280       .  A
O443       Ni669   1.941       .  S
O443        C453   1.286       .  A
O444       Ni449   1.910       .  S
O445       Ni670   1.894       .  S
O445        C454   1.275       .  A
O446       Ni450   1.920   1_455  S
O447       Ni450   1.945   1_455  S
O448       Ni670   1.927       .  S
O448        C451   1.283       .  A
Ni449       O662   1.916       .  S
Ni449       O663   1.941       .  S
Ni450       O665   1.894       .  S
Ni450       O668   1.927       .  S
C451        C620   1.458       .  S
C454        C609   1.471       .  S
C455        C676   1.526   1_545  S
C455        C461   1.530       .  S
C455        C459   1.539   1_545  S
C455        N521   1.498       .  S
C456        C675   1.526       .  S
C456        H463   1.078       .  S
C456        C457   1.354       .  D
C457        C678   1.552       .  S
C457        N528   1.450       .  S
C458        C677   1.552       .  S
C458        C462   1.572   1_565  S
C458        C460   1.556       .  S
C458        H684   1.109   1_655  S
C459        H465   1.078       .  S
C459        C460   1.376       .  D
C461        H466   1.081       .  S
C461        C462   1.381       .  D
C462        N535   1.475       .  S
H464        C678   1.109   1_455  S
C467        C468   1.525   1_565  S
C467        C693   1.522       .  S
C467        C471   1.535       .  S
C467        N500   1.493   1_565  S
C468        H475   1.080       .  S
C468        C469   1.372       .  D
C469        C470   1.581   1_545  S
C469        N507   1.482       .  S
C470        C694   1.571       .  S
C470        C472   1.572       .  S
C470        H696   1.108   1_655  S
C471        H477   1.080       .  S
C471        C472   1.379       .  D
C473        C687   1.522       .  S
C473        H478   1.082       .  S
C473        C474   1.361       .  D
C474        C690   1.571       .  S
C474        N479   1.462       .  S
H476        C690   1.108   1_455  S
N479        C483   1.378       .  A
N479        C480   1.366       .  A
C480        C606   1.467       .  S
C480        C481   1.370       .  A
C481        C482   1.350       .  A
C481        H484   1.077       .  S
C482        C483   1.385       .  A
C482        H485   1.078       .  S
C483        C511   1.498       .  S
O486       Ni494   1.912       .  S
O486        C496   1.282   1_545  A
O487       Ni494   1.917   1_556  S
O487        C497   1.281       .  A
O488       Ni494   1.917       .  S
O488        C498   1.282       .  A
O489       Ni494   1.914   1_556  S
O489        C499   1.280   1_545  A
O490       Ni495   1.917   1_556  S
O490        C719   1.282       .  A
O491       Ni495   1.914       .  S
O491        C718   1.282       .  A
O492       Ni495   1.910   1_556  S
O492        C717   1.282       .  A
O493       Ni495   1.915       .  S
O493        C716   1.281       .  A
Ni494      Ni715   2.385   1_545  S
Ni495      Ni714   2.385       .  S
C496        O713   1.281       .  A
C496        C592   1.481   1_655  S
C497        O712   1.282   1_545  A
C497        C553   1.480       .  S
C498        O711   1.282   1_545  A
C498        C564   1.490       .  S
C499        O710   1.282       .  A
C499        C578   1.492   1_655  S
N500        C504   1.373       .  A
N500        C501   1.358       .  A
C501        C567   1.485       .  S
C501        C502   1.376       .  A
C502        C503   1.365       .  A
C502        H505   1.070       .  S
C503        C504   1.381       .  A
C503        H506   1.078       .  S
C504        C738   1.503   1_545  S
N507        C511   1.372       .  A
N507        C508   1.365   1_655  A
C508        C634   1.517       .  S
C508        C509   1.388       .  A
C509        C510   1.370       .  A
C509        H512   1.075       .  S
C510        C511   1.372   1_455  A
C510        H513   1.076       .  S
N514        C518   1.371       .  A
N514        C515   1.364       .  A
C515        C815   1.494       .  S
C515        C736   1.371       .  A
C516        C735   1.371       .  A
C516        C517   1.362       .  A
C516        H519   1.078       .  S
C517        C738   1.390       .  A
C517        H520   1.079       .  S
C518        C724   1.503       .  S
C518        C737   1.390       .  A
N521        C525   1.375       .  A
N521        C522   1.362       .  A
C522        C550   1.497       .  S
C522        C523   1.375       .  A
C523        C524   1.363       .  A
C523        H526   1.073       .  S
C524        C525   1.384       .  A
C524        H527   1.080       .  S
C525        C766   1.507   1_545  S
N528        C532   1.371       .  A
N528        C529   1.355       .  A
C529        C623   1.473       .  S
C529        C530   1.373       .  A
C530        C531   1.362       .  A
C530        H533   1.081       .  S
C531        C532   1.389       .  A
C531        H534   1.078       .  S
C532        C539   1.503       .  S
N535        C539   1.369       .  A
N535        C536   1.373   1_655  A
C536        C651   1.528       .  S
C536        C537   1.388       .  A
C537        C538   1.370       .  A
C537        H540   1.076       .  S
C538        C539   1.375   1_455  A
C538        H541   1.078       .  S
N542        C546   1.367       .  A
N542        C543   1.357       .  A
C543        C581   1.486       .  S
C543        C544   1.368       .  A
C544        C545   1.363       .  A
C544        H547   1.069       .  S
C545        C546   1.390       .  A
C545        H768   1.077       .  S
C546        C745   1.507       .  S
H548        C765   1.077       .  S
C549        C550   1.412       .  A
C549        C554   1.408       .  A
C549        H556   1.084       .  S
C550        C551   1.413   1_545  A
C551        C552   1.399       .  A
C551        N778   1.429       .  S
C552        C553   1.403   1_565  A
C552        H777   1.084       .  S
C553        C554   1.406       .  A
C554        N555   1.431       .  S
N555        H559   1.046       .  S
N555        H560   1.044       .  S
H557        C772   1.084       .  S
N558        C771   1.429       .  S
N558        H561   1.044       .  S
N558        H562   1.045       .  S
C563        C564   1.408       .  A
C563        C568   1.408       .  A
C563        H570   1.082       .  S
C564        C565   1.416   1_545  A
C565        C566   1.399       .  A
C565        N572   1.432       .  S
C566        C567   1.401   1_565  A
C566        H571   1.081       .  S
C567        C568   1.407       .  A
C568        N569   1.431       .  S
N569        H573   1.043       .  S
N569        H574   1.044       .  S
N572        H575   1.045       .  S
N572        H576   1.046       .  S
C577        C582   1.405       .  A
C577        H584   1.082       .  S
C578        C579   1.424       .  A
C579        C580   1.396       .  A
C579        N586   1.433   1_565  S
C580        H585   1.083   1_565  S
C581        C582   1.408       .  A
C582        N583   1.432       .  S
N583        H587   1.045       .  S
N583        H588   1.044       .  S
N586        H589   1.045       .  S
N586        H590   1.045   1_455  S
C591        C592   1.405       .  A
C591        C596   1.400       .  A
C591        H598   1.084   1_565  S
C593        C594   1.405       .  A
C593        N600   1.432       .  S
C594        C815   1.410       .  A
C594        H599   1.084       .  S
C595        C735   1.494       .  S
C595        C814   1.410       .  A
C596        N597   1.430   1_565  S
N597        H601   1.046   1_455  S
N597        H602   1.045       .  S
N600        H603   1.043       .  S
N600        H604   1.046       .  S
C605        C606   1.396       .  A
C605        C610   1.402       .  A
C605        H612   1.084       .  S
C606        C607   1.416       .  A
C607        C608   1.394       .  A
C607        N614   1.436       .  S
C608        C609   1.395       .  A
C609        C610   1.412       .  A
C610        N611   1.429       .  S
N611        H835   1.041       .  S
N611        H836   1.038       .  S
N614        H617   1.037       .  S
H615        N831   1.041       .  S
H616        N831   1.038       .  S
C619        H626   1.085       .  S
C620        C621   1.400       .  A
C621        C622   1.402       .  A
C621        N628   1.432       .  S
C622        C623   1.410       .  A
C622        H627   1.084       .  S
C623        C624   1.414       .  A
N625        H629   1.046       .  S
N625        H630   1.045       .  S
N628        H631   1.043       .  S
N628        H632   1.045       .  S
C633        C634   1.398       .  A
C633        C638   1.414       .  A
C633        H640   1.082       .  S
C634        C635   1.434       .  A
C635        N642   1.437       .  S
C636        H641   1.084       .  S
C637        C638   1.421       .  A
C638        N639   1.434   1_545  S
N639        H863   1.043       .  S
N639        H864   1.045       .  S
N642        H645   1.045       .  S
H643        N859   1.043       .  S
H644        N859   1.045       .  S
C647        C648   1.403   1_655  A
C647        C652   1.405       .  A
C647        H654   1.083       .  S
C649        N656   1.435       .  S
C650        C651   1.422       .  A
C651        C652   1.410   1_455  A
C652        N653   1.423       .  S
N653        H657   1.044       .  S
N653        H658   1.041       .  S
N656        H659   1.040       .  S
N656        H660   1.039       .  S
O661       Ni669   1.881   1_565  S
O662        C672   1.280       .  A
O663        C673   1.286       .  A
O664       Ni669   1.910   1_565  S
O665        C674   1.275   1_545  A
O666       Ni670   1.920   1_455  S
O667       Ni670   1.945   1_455  S
O668        C671   1.283   1_545  A
C671        C840   1.458       .  S
C674        C829   1.471       .  S
C675        C681   1.530       .  S
C675        C679   1.539       .  S
C675        N741   1.498       .  S
C676        H683   1.078       .  S
C676        C677   1.354       .  D
C677        N748   1.450       .  S
C678        C682   1.572       .  S
C678        C680   1.556       .  S
C679        H685   1.078       .  S
C679        C680   1.376       .  D
C681        H686   1.081       .  S
C681        C682   1.381       .  D
C682        N755   1.475       .  S
C687        C688   1.525       .  S
C687        C691   1.535       .  S
C687        N720   1.493       .  S
C688        H695   1.080       .  S
C688        C689   1.372       .  D
C689        C690   1.581       .  S
C689        N727   1.482       .  S
C690        C692   1.572       .  S
C691        H697   1.080       .  S
C691        C692   1.379       .  D
C693        H698   1.082       .  S
C693        C694   1.361       .  D
C694        N699   1.462       .  S
N699        C703   1.378       .  A
N699        C700   1.366       .  A
C700        C826   1.467       .  S
C700        C701   1.370       .  A
C701        C702   1.350       .  A
C701        H704   1.077       .  S
C702        C703   1.385       .  A
C702        H705   1.078       .  S
C703        C731   1.498       .  S
O706       Ni714   1.912       .  S
O706        C716   1.282       .  A
O707       Ni714   1.917   1_556  S
O707        C717   1.281       .  A
O708       Ni714   1.917       .  S
O708        C718   1.282       .  A
O709       Ni714   1.914   1_556  S
O709        C719   1.280       .  A
O710       Ni715   1.917   1_556  S
O711       Ni715   1.914       .  S
O712       Ni715   1.910   1_556  S
O713       Ni715   1.915       .  S
C716        C812   1.481   1_655  S
C717        C773   1.480       .  S
C718        C784   1.490       .  S
C719        C798   1.492   1_655  S
N720        C724   1.373       .  A
N720        C721   1.358       .  A
C721        C787   1.485       .  S
C721        C722   1.376       .  A
C722        C723   1.365       .  A
C722        H725   1.070       .  S
C723        C724   1.381       .  A
C723        H726   1.078       .  S
N727        C731   1.372       .  A
N727        C728   1.365   1_655  A
C728        C854   1.517       .  S
C728        C729   1.388       .  A
C729        C730   1.370       .  A
C729        H732   1.075       .  S
C730        C731   1.372   1_455  A
C730        H733   1.076       .  S
N734        C738   1.371       .  A
N734        C735   1.364       .  A
C736        C737   1.362       .  A
C736        H739   1.078       .  S
C737        H740   1.079       .  S
N741        C745   1.375       .  A
N741        C742   1.362       .  A
C742        C770   1.497       .  S
C742        C743   1.375       .  A
C743        C744   1.363       .  A
C743        H746   1.073       .  S
C744        C745   1.384       .  A
C744        H747   1.080       .  S
N748        C752   1.371       .  A
N748        C749   1.355       .  A
C749        C843   1.473       .  S
C749        C750   1.373       .  A
C750        C751   1.362       .  A
C750        H753   1.081       .  S
C751        C752   1.389       .  A
C751        H754   1.078       .  S
C752        C759   1.503       .  S
N755        C759   1.369       .  A
N755        C756   1.373   1_655  A
C756        C871   1.528       .  S
C756        C757   1.388       .  A
C757        C758   1.370       .  A
C757        H760   1.076       .  S
C758        C759   1.375   1_455  A
C758        H761   1.078       .  S
N762        C766   1.367       .  A
N762        C763   1.357       .  A
C763        C801   1.486       .  S
C763        C764   1.368       .  A
C764        C765   1.363       .  A
C764        H767   1.069       .  S
C765        C766   1.390       .  A
C769        C770   1.412       .  A
C769        C774   1.408       .  A
C769        H776   1.084       .  S
C770        C771   1.413       .  A
C771        C772   1.399       .  A
C772        C773   1.403       .  A
C773        C774   1.406       .  A
C774        N775   1.431       .  S
N775        H779   1.046       .  S
N775        H780   1.044       .  S
N778        H781   1.044       .  S
N778        H782   1.045       .  S
C783        C784   1.408       .  A
C783        C788   1.408       .  A
C783        H790   1.082       .  S
C784        C785   1.416       .  A
C785        C786   1.399       .  A
C785        N792   1.432       .  S
C786        C787   1.401       .  A
C786        H791   1.081       .  S
C787        C788   1.407       .  A
C788        N789   1.431       .  S
N789        H793   1.043       .  S
N789        H794   1.044       .  S
N792        H795   1.045       .  S
N792        H796   1.046       .  S
C797        C802   1.405       .  A
C797        H804   1.082       .  S
C798        C799   1.424       .  A
C799        C800   1.396       .  A
C799        N806   1.433       .  S
C800        H805   1.083       .  S
C801        C802   1.408       .  A
C802        N803   1.432       .  S
N803        H807   1.045       .  S
N803        H808   1.044       .  S
N806        H809   1.045       .  S
N806        H810   1.045   1_455  S
C811        C812   1.405       .  A
C811        C816   1.400       .  A
C811        H818   1.084       .  S
C813        C814   1.405       .  A
C813        N820   1.432       .  S
C814        H819   1.084       .  S
C816        N817   1.430       .  S
N817        H821   1.046   1_455  S
N817        H822   1.045       .  S
N820        H823   1.043       .  S
N820        H824   1.046       .  S
C825        C826   1.396       .  A
C825        C830   1.402       .  A
C825        H832   1.084       .  S
C826        C827   1.416       .  A
C827        C828   1.394       .  A
C827        N834   1.436       .  S
C828        C829   1.395       .  A
C829        C830   1.412       .  A
C830        N831   1.429   1_565  S
N834        H837   1.037       .  S
C839        H846   1.085       .  S
C840        C841   1.400       .  A
C841        C842   1.402       .  A
C841        N848   1.432       .  S
C842        C843   1.410       .  A
C842        H847   1.084       .  S
C843        C844   1.414       .  A
N845        H849   1.046       .  S
N845        H850   1.045       .  S
N848        H851   1.043       .  S
N848        H852   1.045       .  S
C853        C854   1.398       .  A
C853        C858   1.414       .  A
C853        H860   1.082       .  S
C854        C855   1.434       .  A
C855        N862   1.437       .  S
C856        H861   1.084       .  S
C857        C858   1.421       .  A
C858        N859   1.434       .  S
N862        H865   1.045       .  S
C867        C868   1.403   1_655  A
C867        C872   1.405       .  A
C867        H874   1.083       .  S
C869        N876   1.435       .  S
C870        C871   1.422       .  A
C871        C872   1.410   1_455  A
C872        N873   1.423       .  S
N873        H877   1.044       .  S
N873        H878   1.041       .  S
N876        H879   1.040       .  S
N876        H880   1.039       .  S
