geometry optimzed in LAMMPS
_audit_creation_date              2020-11-30 
_audit_creation_method            'lammps2cif' 
_symmetry_space_group_name_H-M    'P1' 
_symmetry_Int_Tables_number       1 
_symmetry_cell_setting            triclinic 
loop_ 
_symmetry_equiv_pos_as_xyz 
  x,y,z 
_cell_length_a                    62.81505667 
_cell_length_b                    62.671934203482586 
_cell_length_c                    42.28678080104746 
_cell_angle_alpha                 89.62454431117295 
_cell_angle_beta                  90.25059258139835 
_cell_angle_gamma                 89.94912783897567 
loop_ 
_atom_site_label 
_atom_site_type_symbol 
_atom_site_fract_x 
_atom_site_fract_y 
_atom_site_fract_z 
_atom_site_charge 
C1          C  0.57702547  0.52358537  0.10587429     0.80600
N2          N  0.56793152  0.51897217  0.13421395    -0.77700
C3          C  0.55026675  0.50640416  0.13564746     0.83100
N4          N  0.54159650  0.49871186  0.10839765    -0.77600
C5          C  0.55054563  0.50352063  0.07996212     0.83200
N6          N  0.56830351  0.51576476  0.07898977    -0.79300
C7          C  0.46888926  0.43627748  0.85714173     0.80600
N8          N  0.47763463  0.44320369  0.88460775    -0.77700
C9          C  0.49498643  0.45605130  0.88440748     0.83100
N10         N  0.50339630  0.46241005  0.85632917    -0.77600
C11         C  0.49465598  0.45580183  0.82857287     0.83200
N12         N  0.47743968  0.44257059  0.82906802    -0.79300
C13         C  0.48486706  0.42634356  0.36102190     0.80600
N14         N  0.48905306  0.43646609  0.33322920    -0.77700
C15         C  0.50098460  0.45457718  0.33270100     0.83100
N16         N  0.50828718  0.46284594  0.36040674    -0.77600
C17         C  0.50372307  0.45307388  0.38842893     0.83200
N18         N  0.49224680  0.43468339  0.38851463    -0.79300
C19         C  0.56716662  0.54096794  0.61021836     0.80600
N20         N  0.55979677  0.53255972  0.63777209    -0.77700
C21         C  0.54684674  0.51518979  0.63753999     0.83100
N22         N  0.54102290  0.50643151  0.60946062    -0.77600
C23         C  0.54833755  0.51469844  0.58175129     0.83200
N24         N  0.56151388  0.53190682  0.58228429    -0.79300
N25         N  0.80192009  0.61396203  0.10104097    -0.26900
N26         N  0.81172093  0.63092341  0.11253399    -0.34800
C27         C  0.83219377  0.62597596  0.11856461     0.01400
C28         C  0.83548990  0.60498242  0.11010771     0.07500
C29         C  0.81601427  0.59785417  0.09904251    -0.05600
H30         H  0.84387349  0.63697613  0.12787582     0.08100
H31         H  0.81225767  0.58201528  0.09067566     0.09300
Cu32       Cu  0.79716709  0.66023213  0.11888750     0.44200
Cu33       Cu  0.76957696  0.61304320  0.09021162     0.42000
Cu34       Cu  0.74037048  0.66053111  0.11402646     0.43900
N35         N  0.77924202  0.68785813  0.12218493    -0.34300
N36         N  0.75823617  0.68808747  0.12044749    -0.28500
C37         C  0.75139684  0.70840341  0.12260343    -0.04600
C38         C  0.76900245  0.72152803  0.12591174     0.07600
C39         C  0.78636034  0.70794284  0.12556925     0.01400
H40         H  0.73487267  0.71324773  0.12154582     0.09000
H41         H  0.80297859  0.71232682  0.12721420     0.08100
N42         N  0.72612274  0.63169477  0.10237024    -0.35700
N43         N  0.73652775  0.61476952  0.09201646    -0.27900
C44         C  0.72246200  0.59900809  0.08635378    -0.03100
C45         C  0.70236738  0.60630046  0.09408778     0.05500
C46         C  0.70529182  0.62699623  0.10425621     0.03600
H47         H  0.72669521  0.58307664  0.07891883     0.08700
H48         H  0.69317669  0.63781422  0.11268351     0.07500
N49         N  0.80357763  0.85256884  0.15338947    -0.26900
N50         N  0.81411742  0.83457384  0.14877774    -0.34800
C51         C  0.83515089  0.83873694  0.14916471     0.01400
C52         C  0.83794987  0.86028307  0.15481120     0.07500
C53         C  0.81762860  0.86855301  0.15744968    -0.05600
H54         H  0.84749398  0.82695527  0.14559418     0.08100
H55         H  0.81334781  0.88510095  0.16086701     0.09300
Cu56       Cu  0.79931112  0.80522078  0.14171028     0.44200
Cu57       Cu  0.77054647  0.85488146  0.15149191     0.42000
Cu58       Cu  0.74247079  0.80718482  0.12679491     0.43900
N59         N  0.78060027  0.77826900  0.13413335    -0.34300
N60         N  0.75988566  0.77901184  0.12845975    -0.28500
C61         C  0.75252406  0.75900076  0.12479536    -0.04600
C62         C  0.76942291  0.74499104  0.12825558     0.07600
C63         C  0.78696157  0.75775514  0.13414288     0.01400
H64         H  0.73608154  0.75498287  0.12000562     0.09000
H65         H  0.80316632  0.75253374  0.13822946     0.08100
N66         N  0.72779755  0.83652526  0.13331295    -0.35700
N67         N  0.73785452  0.85371127  0.14351214    -0.27900
C68         C  0.72361868  0.86956366  0.14723581    -0.03100
C69         C  0.70373841  0.86204742  0.13860956     0.05500
C70         C  0.70698200  0.84108672  0.12979454     0.03600
H71         H  0.72749816  0.88542218  0.15539305     0.08700
H72         H  0.69500835  0.82978181  0.12227297     0.07500
C73         C  0.46001751  0.01671833  0.89538187     0.80600
N74         N  0.46718428  0.00826515  0.92306553    -0.77700
C75         C  0.48394184  0.99450401  0.92341699     0.83100
N76         N  0.49325979  0.98883458  0.89566065    -0.77600
C77         C  0.48598934  0.99713586  0.86779680     0.83200
N78         N  0.46950794  0.01116297  0.86792389    -0.79300
C79         C  0.57354828  0.93735419  0.14679125     0.80600
N80         N  0.56597436  0.94608948  0.17383405    -0.77700
C81         C  0.54754982  0.95749241  0.17341027     0.83100
N82         N  0.53693229  0.96045794  0.14561837    -0.77600
C83         C  0.54443447  0.95177165  0.11847930     0.83200
N84         N  0.56266742  0.94011921  0.11926706    -0.79300
C85         C  0.55744220  0.92438803  0.64071415     0.80600
N86         N  0.55061327  0.93429530  0.61393160    -0.77700
C87         C  0.53660674  0.95075571  0.61535162     0.83100
N88         N  0.52970384  0.95760261  0.64398559    -0.77600
C89         C  0.53668599  0.94793284  0.67103546     0.83200
N90         N  0.55038445  0.93116036  0.66925425    -0.79300
C91         C  0.47445646  0.03828168  0.39193174     0.80600
N92         N  0.48169642  0.02964059  0.36460863    -0.77700
C93         C  0.49319166  0.01129014  0.36519305     0.83100
N94         N  0.49772008  0.00177880  0.39335321    -0.77600
C95         C  0.49053962  0.01025265  0.42081691     0.83200
N96         N  0.47882023  0.02849541  0.42002185    -0.79300
N97         N  0.30174861  0.11042876  0.88041599    -0.26900
N98         N  0.31208217  0.12556590  0.86486251    -0.34800
C99         C  0.33252272  0.11956551  0.86143431     0.01400
C100        C  0.33524181  0.09990242  0.87598352     0.07500
C101        C  0.31543562  0.09460381  0.88782651    -0.05600
H102        H  0.34465516  0.12912488  0.85008304     0.08100
H103        H  0.31119337  0.08017858  0.90049543     0.09300
Cu104      Cu  0.29827629  0.15445791  0.85128920     0.44200
Cu105      Cu  0.26927334  0.11152856  0.88953644     0.42000
Cu106      Cu  0.24087054  0.15720696  0.85853802     0.43900
N107        N  0.28109572  0.18288962  0.84859532    -0.34300
N108        N  0.26015081  0.18377677  0.85143328    -0.28500
C109        C  0.25391018  0.20430654  0.85020600    -0.04600
C110        C  0.27172111  0.21701889  0.84633419     0.07600
C111        C  0.28871168  0.20289931  0.84544147     0.01400
H112        H  0.23759212  0.20958825  0.85244830     0.09000
H113        H  0.30539933  0.20687191  0.84322501     0.08100
N114        N  0.22585018  0.12929184  0.87318161    -0.35700
N115        N  0.23629215  0.11314215  0.88627529    -0.27900
C116        C  0.22231589  0.09786688  0.89449261    -0.03100
C117        C  0.20217137  0.10451649  0.88564096     0.05500
C118        C  0.20495093  0.12446803  0.87203542     0.03600
H119        H  0.22660980  0.08266730  0.90499779     0.08700
H120        H  0.19270041  0.13479931  0.86238796     0.07500
N121        N  0.30856154  0.34705577  0.86158986    -0.26900
N122        N  0.31815535  0.32970598  0.85112269    -0.34800
C123        C  0.33921436  0.33343061  0.84932596     0.01400
C124        C  0.34306816  0.35395435  0.85970618     0.07500
C125        C  0.32330893  0.36212959  0.86737961    -0.05600
H126        H  0.35089045  0.32192813  0.84154084     0.08100
H127        H  0.31982778  0.37805614  0.87563567     0.09300
Cu128      Cu  0.30220655  0.30140851  0.84144732     0.44200
Cu129      Cu  0.27573926  0.34967025  0.86559950     0.42000
Cu130      Cu  0.24452466  0.30262000  0.84712042     0.43900
N131        N  0.28335420  0.27413100  0.84232000    -0.34300
N132        N  0.26236845  0.27457008  0.84478479    -0.28500
C133        C  0.25509524  0.25439165  0.84635093    -0.04600
C134        C  0.27227767  0.24057652  0.84468623     0.07600
C135        C  0.28995062  0.25366207  0.84216310     0.01400
H136        H  0.23850762  0.25011231  0.84886945     0.09000
H137        H  0.30642724  0.24871196  0.84088763     0.08100
N138        N  0.23130105  0.33274088  0.85440365    -0.35700
N139        N  0.24276539  0.34959988  0.86232022    -0.27900
C140        C  0.22970913  0.36630003  0.86693421    -0.03100
C141        C  0.20905944  0.35977163  0.86131166     0.05500
C142        C  0.21061098  0.33843600  0.85323571     0.03600
H143        H  0.23492771  0.38212719  0.87343747     0.08700
H144        H  0.19763873  0.32773613  0.84765127     0.07500
C145        C  0.06173630  0.03945666  0.40508130     0.80600
N146        N  0.05490194  0.03065232  0.37753997    -0.77700
C147        C  0.04252154  0.01289011  0.37778536     0.83100
N148        N  0.03672583  0.00403659  0.40584714    -0.77600
C149        C  0.04352412  0.01251532  0.43359290     0.83200
N150        N  0.05616601  0.03021288  0.43314053    -0.79300
C151        C  0.98065874  0.92057086  0.65329086     0.80600
N152        N  0.98927615  0.92751465  0.68088188    -0.77700
C153        C  0.00280406  0.94443608  0.68099980     0.83100
N154        N  0.00803928  0.95408640  0.65317011    -0.77600
C155        C  0.99962460  0.94710091  0.62540238     0.83200
N156        N  0.98577110  0.93047149  0.62567488    -0.79300
C157        C  0.96612020  0.93937028  0.15606681     0.80600
N158        N  0.97486550  0.94637984  0.18351198    -0.77700
C159        C  0.99336836  0.95760294  0.18329726     0.83100
N160        N  0.00292717  0.96219836  0.15525168    -0.77600
C161        C  0.99418084  0.95541171  0.12760029     0.83200
N162        N  0.97585931  0.94385316  0.12818400    -0.79300
C163        C  0.08141830  0.01565063  0.90316021     0.80600
N164        N  0.07244013  0.00860329  0.87594833    -0.77700
C165        C  0.05584326  0.99477041  0.87666513     0.83100
N166        N  0.04781310  0.98836056  0.90501811    -0.77600
C167        C  0.05652008  0.99556781  0.93249960     0.83200
N168        N  0.07351909  0.00899768  0.93143121    -0.79300
N169        N  0.65433153  0.70346584  0.61034691    -0.26900
N170        N  0.67014851  0.69376819  0.59573004    -0.34800
C171        C  0.66559899  0.67286642  0.59329976     0.01400
C172        C  0.64614316  0.66918802  0.60750139     0.07500
C173        C  0.63944997  0.68891912  0.61812208    -0.05600
H174        H  0.67587368  0.66116405  0.58246882     0.08100
H175        H  0.62464751  0.69252963  0.62993886     0.09300
Cu176      Cu  0.69757445  0.70938115  0.58111277     0.44200
Cu177      Cu  0.65349680  0.73622557  0.61733955     0.42000
Cu178      Cu  0.69800760  0.76709425  0.58575979     0.43900
N179        N  0.72473382  0.72779403  0.57500776    -0.34300
N180        N  0.72502783  0.74886140  0.57654228    -0.28500
C181        C  0.74531579  0.75561526  0.57392134    -0.04600
C182        C  0.75838255  0.73792428  0.57072123     0.07600
C183        C  0.74475369  0.72060372  0.57148224     0.01400
H184        H  0.75026223  0.77209362  0.57574508     0.09000
H185        H  0.74912605  0.70391332  0.57088859     0.08100
N186        N  0.67011439  0.78062847  0.60315270    -0.35700
N187        N  0.65444122  0.76933918  0.61569312    -0.27900
C188        C  0.63918363  0.78269535  0.62575099    -0.03100
C189        C  0.64538588  0.80336555  0.61896884     0.05500
C190        C  0.66502885  0.80150059  0.60451918     0.03600
H191        H  0.62440638  0.77766473  0.63651528     0.08700
H192        H  0.67500361  0.81434657  0.59597131     0.07500
N193        N  0.88392969  0.69991107  0.62187032    -0.26900
N194        N  0.86827529  0.69012758  0.60683078    -0.34800
C195        C  0.87367835  0.66949774  0.60273911     0.01400
C196        C  0.89363060  0.66613271  0.61606318     0.07500
C197        C  0.89958047  0.68576801  0.62802738    -0.05600
H198        H  0.86380960  0.65782152  0.59097064     0.08100
H199        H  0.91444907  0.68965175  0.63963155     0.09300
Cu200      Cu  0.84053001  0.70587799  0.59249478     0.44200
Cu201      Cu  0.88381413  0.73245194  0.63128699     0.42000
Cu202      Cu  0.84245360  0.76389958  0.59205051     0.43900
N203        N  0.81461802  0.72546620  0.58142445    -0.34300
N204        N  0.81538671  0.74655716  0.58074457    -0.28500
C205        C  0.79571759  0.75427769  0.57497837    -0.04600
C206        C  0.78186659  0.73723101  0.57200217     0.07600
C207        C  0.79443067  0.71924320  0.57612918     0.01400
H208        H  0.79164556  0.77105604  0.57463153     0.09000
H209        H  0.78914150  0.70282729  0.57671218     0.08100
N210        N  0.86869255  0.77696413  0.61474134    -0.35700
N211        N  0.88320748  0.76562466  0.63018595    -0.27900
C212        C  0.89785337  0.77894339  0.64239696    -0.03100
C213        C  0.89242284  0.79959191  0.63389547     0.05500
C214        C  0.87385802  0.79773960  0.61640555     0.03600
H215        H  0.91191513  0.77385942  0.65524831     0.08700
H216        H  0.86486119  0.81052166  0.60537668     0.07500
C217        C  0.05798153  0.42877181  0.37132480     0.80600
N218        N  0.04981303  0.43647246  0.39875890    -0.77700
C219        C  0.03717414  0.45414050  0.39861533     0.83100
N220        N  0.03231488  0.46380080  0.37057545    -0.77600
C221        C  0.04031048  0.45619102  0.34295093     0.83200
N222        N  0.05328794  0.43877927  0.34351873    -0.79300
C223        C  0.97792201  0.54046940  0.62351523     0.80600
N224        N  0.98221592  0.53034897  0.59589253    -0.77700
C225        C  0.99579288  0.51340624  0.59533977     0.83100
N226        N  0.00489323  0.50642426  0.62289307    -0.77600
C227        C  0.00053448  0.51628288  0.65075615     0.83200
N228        N  0.98719146  0.53341832  0.65078954    -0.79300
C229        C  0.96205147  0.52338426  0.11588147     0.80600
N230        N  0.97132966  0.51828901  0.14405727    -0.77700
C231        C  0.98922602  0.50604653  0.14496385     0.83100
N232        N  0.99805037  0.49934132  0.11743460    -0.77600
C233        C  0.98909652  0.50464824  0.08913766     0.83200
N234        N  0.97093307  0.51645894  0.08852179    -0.79300
C235        C  0.08688499  0.44744541  0.87313824     0.80600
N236        N  0.07753526  0.45338206  0.90067479    -0.77700
C237        C  0.05950437  0.46546651  0.90017324     0.83100
N238        N  0.05122717  0.47200435  0.87189863    -0.77600
C239        C  0.06057471  0.46625097  0.84424863     0.83200
N240        N  0.07821715  0.45370466  0.84506070    -0.79300
N241        N  0.15021520  0.20124193  0.38768158    -0.26900
N242        N  0.16853678  0.19129878  0.39262709    -0.34800
C243        C  0.16470769  0.17023525  0.39646359     0.01400
C244        C  0.14300973  0.16678951  0.39321155     0.07500
C245        C  0.13437605  0.18676625  0.38750602    -0.05600
H246        H  0.17686690  0.15824622  0.40028721     0.08100
H247        H  0.11773717  0.19052909  0.38377207     0.09300
Cu248      Cu  0.19792544  0.20711101  0.39144246     0.44200
Cu249      Cu  0.14752085  0.23418955  0.38159622     0.42000
Cu250      Cu  0.19659920  0.26421709  0.37261592     0.43900
N251        N  0.22510624  0.22568572  0.38313594    -0.34300
N252        N  0.22466008  0.24629792  0.37605153    -0.28500
C253        C  0.24476770  0.25314725  0.37132954    -0.04600
C254        C  0.25855034  0.23607628  0.37559846     0.07600
C255        C  0.24549595  0.21896278  0.38310240     0.01400
H256        H  0.24902336  0.26936013  0.36512458     0.09000
H257        H  0.25043192  0.20271327  0.38788139     0.08100
N258        N  0.16631159  0.27817011  0.37125264    -0.35700
N259        N  0.14852719  0.26723396  0.37554353    -0.27900
C260        C  0.13189915  0.28082994  0.37507281    -0.03100
C261        C  0.13947295  0.30125144  0.36965762     0.05500
C262        C  0.16135624  0.29897259  0.36726237     0.03600
H263        H  0.11546024  0.27615985  0.37819635     0.08700
H264        H  0.17287437  0.31158772  0.36380099     0.07500
N265        N  0.39141002  0.26728409  0.36507694    -0.26900
N266        N  0.37376662  0.27808214  0.35879294    -0.34800
C267        C  0.37879244  0.29890901  0.35537901     0.01400
C268        C  0.40052080  0.30123525  0.36038046     0.07500
C269        C  0.40793371  0.28087730  0.36653903    -0.05600
H270        H  0.36739484  0.31151128  0.35075698     0.08100
H271        H  0.42419360  0.27622794  0.37160437     0.09300
Cu272      Cu  0.34356504  0.26373384  0.35807408     0.44200
Cu273      Cu  0.39259518  0.23455305  0.37174550     0.42000
Cu274      Cu  0.34308814  0.20741975  0.38303897     0.43900
N275        N  0.31577408  0.24589651  0.36617121    -0.34300
N276        N  0.31582970  0.22564468  0.37532103    -0.28500
C277        C  0.29562401  0.21908656  0.37942313    -0.04600
C278        C  0.28206519  0.23595391  0.37278248     0.07600
C279        C  0.29539990  0.25270014  0.36439406     0.01400
H280        H  0.29117126  0.20323693  0.38720634     0.09000
H281        H  0.29066207  0.26875207  0.35794803     0.08100
N282        N  0.37241513  0.19213010  0.38597753    -0.35700
N283        N  0.39056438  0.20207557  0.38032736    -0.27900
C284        C  0.40658208  0.18784254  0.38130510    -0.03100
C285        C  0.39814937  0.16809103  0.38860011     0.05500
C286        C  0.37646527  0.17132651  0.39151990     0.03600
H287        H  0.42314341  0.19161913  0.37714079     0.08700
H288        H  0.36445858  0.15933196  0.39601899     0.07500
C289        C  0.02203584  0.48419050  0.02717237     0.20700
C290        C  0.03943449  0.47338919  0.01388111    -0.39100
C291        C  0.04064240  0.47390862  0.98070105     0.19700
C292        C  0.02564811  0.48438553  0.96222139     0.22400
C293        C  0.00822234  0.49513317  0.97551011    -0.39600
C294        C  0.00701973  0.49462106  0.00867369     0.21200
N295        N  0.01746350  0.48627309  0.05805957    -0.32900
C296        C  0.99938484  0.49811144  0.05932164    -0.10500
C297        C  0.99238292  0.50359940  0.02892937    -0.29300
N298        N  0.03045105  0.48270160  0.93135577    -0.45900
C299        C  0.04868122  0.47110001  0.93004190    -0.05200
C300        C  0.05548711  0.46527219  0.96041766    -0.22500
H301        H  0.05122393  0.46527407  0.02832433     0.19300
H302        H  0.99651843  0.50338609  0.96108552     0.18100
H303        H  0.97858317  0.51306909  0.02253518     0.14300
H304        H  0.06943707  0.45602509  0.96680146     0.14200
H305        H  0.02619311  0.48013209  0.07711568     0.32400
H306        H  0.02185921  0.48909787  0.91234925     0.35100
C307        C  0.03287434  0.49150466  0.77961430     0.20700
C308        C  0.01845181  0.50567020  0.76508236    -0.39100
C309        C  0.01732256  0.50483056  0.73193299     0.19700
C310        C  0.02956628  0.49088527  0.71445728     0.22400
C311        C  0.04417627  0.47678906  0.72901065    -0.39600
C312        C  0.04536894  0.47769695  0.76226720     0.21200
N313        N  0.03663759  0.48910942  0.81079274    -0.32900
C314        C  0.05173413  0.47372098  0.81355500    -0.10500
C315        C  0.05765677  0.46625966  0.78372129    -0.29300
N316        N  0.02521893  0.49307139  0.68331305    -0.45900
C317        C  0.01015561  0.50860242  0.68093831    -0.05200
C318        C  0.00490617  0.51629870  0.71084810    -0.22500
H319        H  0.00872503  0.51651409  0.77864014     0.19300
H320        H  0.05383520  0.46587159  0.71547073     0.18100
H321        H  0.06925098  0.45400969  0.77847372     0.14300
H322        H  0.99341102  0.52856499  0.71644952     0.14200
H323        H  0.02939589  0.49749962  0.82910854     0.32400
H324        H  0.03208745  0.48454009  0.66482416     0.35100
C325        C  0.09435845  0.38537892  0.35863662     0.20700
C326        C  0.11126834  0.37420133  0.34452900    -0.39100
C327        C  0.11541523  0.35367352  0.35681933     0.19700
C328        C  0.10325610  0.34479329  0.38073176     0.22400
C329        C  0.08656594  0.35605375  0.39507559    -0.39600
C330        C  0.08278831  0.37674662  0.38337350     0.21200
N331        N  0.08702791  0.40499545  0.35108786    -0.32900
C332        C  0.07093293  0.40902443  0.37155348    -0.10500
C333        C  0.06794749  0.39182270  0.39218679    -0.29300
N334        N  0.11003265  0.32494467  0.38779464    -0.45900
C335        C  0.12693144  0.32123587  0.36875152    -0.05200
C336        C  0.13085245  0.33882353  0.34914758    -0.22500
H337        H  0.12056430  0.38101425  0.32549157     0.19300
H338        H  0.07725827  0.34923232  0.41409215     0.18100
H339        H  0.05614060  0.39035150  0.41063467     0.14300
H340        H  0.14321109  0.34043933  0.33154282     0.14200
H341        H  0.09266119  0.41506516  0.33321812     0.32400
H342        H  0.10380219  0.31467610  0.40493307     0.35100
C343        C  0.03064746  0.47111194  0.26203466     0.20700
C344        C  0.03207289  0.46953601  0.22896909    -0.39100
C345        C  0.01830660  0.48283992  0.21150313     0.19700
C346        C  0.00418435  0.49665789  0.22585790     0.22400
C347        C  0.00298835  0.49846725  0.25891715    -0.39600
C348        C  0.01675494  0.48515723  0.27639588     0.21200
N349        N  0.04115982  0.45939437  0.28385154    -0.32900
C350        C  0.03392532  0.46597539  0.31237813    -0.10500
C351        C  0.01879216  0.48216212  0.30864459    -0.29300
N352        N  0.99218561  0.50686438  0.20406408    -0.45900
C353        C  0.99873896  0.49954653  0.17558441    -0.05200
C354        C  0.01508652  0.48460435  0.17929732    -0.22500
H355        H  0.04275664  0.45840411  0.21767302     0.19300
H356        H  0.99180880  0.50909545  0.27021796     0.18100
H357        H  0.00992194  0.49012713  0.32701337     0.14300
H358        H  0.02315864  0.47582526  0.16093006     0.14200
H359        H  0.05223912  0.44731702  0.27954672     0.32400
H360        H  0.98011068  0.51794548  0.20833326     0.35100
C361        C  0.02559852  0.46805187  0.47907330     0.20700
C362        C  0.02779752  0.46713581  0.51214549    -0.39100
C363        C  0.01602045  0.48219566  0.52923610     0.19700
C364        C  0.00290584  0.49700821  0.51454387     0.22400
C365        C  0.00061778  0.49788415  0.48136884    -0.39600
C366        C  0.01255584  0.48286527  0.46421589     0.21200
N367        N  0.03561770  0.45584411  0.45770331    -0.32900
C368        C  0.02911698  0.46291042  0.42883835    -0.10500
C369        C  0.01464234  0.47977135  0.43195256    -0.29300
N370        N  0.99380045  0.50981903  0.53614546    -0.45900
C371        C  0.00122637  0.50316679  0.56482304    -0.05200
C372        C  0.01511155  0.48592721  0.56136544    -0.22500
H373        H  0.03819494  0.45570784  0.52372686     0.19300
H374        H  0.99054652  0.50959258  0.46975530     0.18100
H375        H  0.00694016  0.48874359  0.41316608     0.14300
H376        H  0.02364951  0.47745206  0.57985240     0.14200
H377        H  0.04651865  0.44364352  0.46249541     0.32400
H378        H  0.98338175  0.52247948  0.53161520     0.35100
C379        C  0.92964286  0.62273147  0.63125785     0.20700
C380        C  0.94599950  0.61159547  0.64706501    -0.39100
C381        C  0.95073518  0.59120708  0.63538081     0.19700
C382        C  0.94028962  0.58273844  0.60946599     0.22400
C383        C  0.92372532  0.59377988  0.59388505    -0.39600
C384        C  0.91871574  0.61403239  0.60595765     0.21200
N385        N  0.92224012  0.64236136  0.63778185    -0.32900
C386        C  0.90624134  0.64615836  0.61682989    -0.10500
C387        C  0.90352954  0.62880913  0.59660329    -0.29300
N388        N  0.94849135  0.56354480  0.60206432    -0.45900
C389        C  0.96410075  0.55962393  0.62364563    -0.05200
C390        C  0.96581628  0.57644950  0.64500417    -0.22500
H391        H  0.95446373  0.61834406  0.66697270     0.19300
H392        H  0.91541354  0.58713119  0.57376304     0.18100
H393        H  0.89214696  0.62730620  0.57746253     0.14300
H394        H  0.97705885  0.57797592  0.66432564     0.14200
H395        H  0.92761448  0.65247801  0.65562981     0.32400
H396        H  0.94384024  0.55374881  0.58338081     0.35100
C397        C  0.02596826  0.97410016  0.06281697     0.20700
C398        C  0.04335199  0.98392555  0.04779523    -0.39100
C399        C  0.04243438  0.98471190  0.01458530     0.19700
C400        C  0.02551301  0.97632867  0.99768735     0.22400
C401        C  0.00811089  0.96660777  0.01270242    -0.39600
C402        C  0.00904662  0.96578432  0.04585370     0.21200
N403        N  0.02295509  0.97138231  0.09409046    -0.32900
C404        C  0.00398536  0.96121186  0.09703353    -0.10500
C405        C  0.99486695  0.95745297  0.06742860    -0.29300
N406        N  0.02844052  0.97897968  0.96641656    -0.45900
C407        C  0.04734761  0.98920021  0.96327518    -0.05200
C408        C  0.05653174  0.99309087  0.99284196    -0.22500
H409        H  0.05660486  0.99046949  0.06097617     0.19300
H410        H  0.99482521  0.96012280  0.99953164     0.18100
H411        H  0.97979036  0.94981970  0.06238605     0.14300
H412        H  0.07151000  0.00095498  0.99774666     0.14200
H413        H  0.03312699  0.97619674  0.11226918     0.32400
H414        H  0.01814825  0.97423644  0.94834853     0.35100
C415        C  0.94130248  0.88098555  0.63764791     0.20700
C416        C  0.92433067  0.87155272  0.62133377    -0.39100
C417        C  0.91849489  0.85113952  0.63173113     0.19700
C418        C  0.92896611  0.84069969  0.65620297     0.22400
C419        C  0.94580968  0.85027996  0.67288882    -0.39600
C420        C  0.95143302  0.87093086  0.66280258     0.21200
N421        N  0.95030479  0.89994941  0.63141757    -0.32900
C422        C  0.96614011  0.90219133  0.65294837    -0.10500
C423        C  0.96725261  0.88452285  0.67319355    -0.29300
N424        N  0.92092048  0.82099800  0.66043198    -0.45900
C425        C  0.90510339  0.81906949  0.63867484    -0.05200
C426        C  0.90305413  0.83758853  0.62050937    -0.22500
H427        H  0.91641766  0.87943189  0.60169013     0.19300
H428        H  0.95406679  0.84217986  0.69201905     0.18100
H429        H  0.97859012  0.88168719  0.69211047     0.14300
H430        H  0.89216019  0.84051475  0.60106106     0.14200
H431        H  0.94605356  0.91066176  0.61344428     0.32400
H432        H  0.92595367  0.80955522  0.67691117     0.35100
C433        C  0.04172456  0.98304519  0.79655831     0.20700
C434        C  0.04194556  0.98552506  0.76352638    -0.39100
C435        C  0.02926461  0.97114923  0.74650801     0.19700
C436        C  0.01738215  0.95543189  0.76129046     0.22400
C437        C  0.01719741  0.95292800  0.79434448    -0.39600
C438        C  0.02975852  0.96741442  0.81139408     0.21200
N439        N  0.05238041  0.99470843  0.81793068    -0.32900
C440        C  0.04711127  0.98658658  0.84665710    -0.10500
C441        C  0.03299128  0.96952197  0.84356377    -0.29300
N442        N  0.00659373  0.94389077  0.73986853    -0.45900
C443        C  0.01158056  0.95231493  0.71120576    -0.05200
C444        C  0.02570296  0.96937049  0.71440373    -0.22500
H445        H  0.05123237  0.99781494  0.75194699     0.19300
H446        H  0.00786224  0.94068153  0.80593201     0.18100
H447        H  0.02619303  0.95985977  0.86226343     0.14300
H448        H  0.03236471  0.97920097  0.69578307     0.14200
H449        H  0.06262942  0.00745535  0.81323395     0.32400
H450        H  0.99636081  0.93112382  0.74450217     0.35100
C451        C  0.11822433  0.11659266  0.41127258     0.20700
C452        C  0.11232536  0.09892879  0.43004636    -0.39100
C453        C  0.09738736  0.08491096  0.41652160     0.19700
C454        C  0.08933764  0.08804730  0.38633633     0.22400
C455        C  0.09507034  0.10577494  0.36770182    -0.39600
C456        C  0.10962375  0.12000579  0.38147302     0.21200
N457        N  0.13174194  0.13246801  0.41891265    -0.32900
C458        C  0.13140709  0.14627436  0.39405631    -0.10500
C459        C  0.11775704  0.13907270  0.37030217    -0.29300
N460        N  0.07580096  0.07228430  0.37858018    -0.45900
C461        C  0.07491973  0.05905641  0.40408838    -0.05200
C462        C  0.08809414  0.06649760  0.42836307    -0.22500
H463        H  0.11872418  0.09640632  0.45357946     0.19300
H464        H  0.08850128  0.10841212  0.34429327     0.18100
H465        H  0.11417596  0.14684177  0.34796985     0.14300
H466        H  0.09073130  0.05926299  0.45135747     0.14200
H467        H  0.14022849  0.13413299  0.44004264     0.32400
H468        H  0.06754222  0.07068712  0.35723267     0.35100
C469        C  0.03354008  0.99574816  0.29817784     0.20700
C470        C  0.03654030  0.99507068  0.26527762    -0.39100
C471        C  0.02235268  0.98200240  0.24847452     0.19700
C472        C  0.00645698  0.97048503  0.26337952     0.22400
C473        C  0.00373659  0.97082459  0.29629893    -0.39600
C474        C  0.01788040  0.98389917  0.31306621     0.21200
N475        N  0.04431158  0.00759067  0.31928268    -0.32900
C476        C  0.03551574  0.00316099  0.34782562    -0.10500
C477        C  0.01905987  0.98834969  0.34490631    -0.29300
N478        N  0.99439462  0.96016386  0.24211229    -0.45900
C479        C  0.00260869  0.96509923  0.21338065    -0.05200
C480        C  0.02019305  0.97857568  0.21639009    -0.22500
H481        H  0.04870467  0.00439877  0.25356012     0.19300
H482        H  0.99121660  0.96193043  0.30792811     0.18100
H483        H  0.00903709  0.98203001  0.36349328     0.14300
H484        H  0.02971788  0.98540424  0.19761624     0.14200
H485        H  0.05682800  0.01808253  0.31455480     0.32400
H486        H  0.98116189  0.95059588  0.24685598     0.35100
C487        C  0.02087363  0.98161769  0.49687164     0.20700
C488        C  0.00774707  0.96607915  0.51096892    -0.39100
C489        C  0.00890298  0.96459731  0.54413435     0.19700
C490        C  0.02216430  0.97756451  0.56178469     0.22400
C491        C  0.03528886  0.99303096  0.54768073    -0.39600
C492        C  0.03408038  0.99458457  0.51459205     0.21200
N493        N  0.02263759  0.98630797  0.46588768    -0.32900
C494        C  0.03701459  0.00244757  0.46382260    -0.10500
C495        C  0.04450072  0.00802322  0.49377683    -0.29300
N496        N  0.02043489  0.97306504  0.59280657    -0.45900
C497        C  0.00595484  0.95710009  0.59509659    -0.05200
C498        C  0.99839065  0.95136873  0.56517453    -0.22500
H499        H  0.99736986  0.95594510  0.49715540     0.19300
H500        H  0.04564552  0.00317416  0.56149663     0.18100
H501        H  0.05601062  0.02024762  0.49954809     0.14300
H502        H  0.98683728  0.93913844  0.55958083     0.14200
H503        H  0.01447865  0.97903576  0.44730446     0.32400
H504        H  0.02867026  0.98036761  0.61127696     0.35100
C505        C  0.16784336  0.39727784  0.87897114     0.15900
C506        C  0.15799969  0.41441881  0.89453369    -0.39100
C507        C  0.13738439  0.41967604  0.88394819     0.19700
C508        C  0.12765681  0.40894602  0.85928777     0.22400
C509        C  0.13732953  0.39162601  0.84418058    -0.39600
C510        C  0.15767934  0.38609539  0.85517481     0.21200
N511        N  0.18749230  0.38938706  0.88406830    -0.32900
C512        C  0.18965665  0.37287066  0.86373188    -0.10500
C513        C  0.17134517  0.37023276  0.84546642    -0.29300
N514        N  0.10859258  0.41755071  0.85251831    -0.45900
C515        C  0.10587143  0.43365713  0.87329073    -0.05200
C516        C  0.12341793  0.43543185  0.89353554    -0.22500
H517        H  0.16584867  0.42307654  0.91332544     0.19300
H518        H  0.12960651  0.38315323  0.82509526     0.18100
H519        H  0.16860584  0.35860243  0.82708725     0.14300
H520        H  0.12585759  0.44702454  0.91206142     0.14200
H521        H  0.19869871  0.39480466  0.90045134     0.32400
H522        H  0.09800099  0.41273750  0.83484454     0.35100
C523        C  0.15944254  0.06987330  0.90724429     0.20700
C524        C  0.14854452  0.05494873  0.92602622    -0.39100
C525        C  0.12945094  0.04715029  0.91328969     0.19700
C526        C  0.12201254  0.05343949  0.88380540     0.22400
C527        C  0.13275409  0.06861386  0.86519782    -0.39600
C528        C  0.15165107  0.07674326  0.87823329     0.21200
N529        N  0.17827060  0.07907113  0.91358872    -0.32900
C530        C  0.18237961  0.09213767  0.88871289    -0.10500
C531        C  0.16606515  0.09129829  0.86625439    -0.29300
N532        N  0.10398153  0.04301466  0.87651743    -0.45900
C533        C  0.09975243  0.03022725  0.90171524    -0.05200
C534        C  0.11521720  0.03244199  0.92522124    -0.22500
H535        H  0.15459384  0.04965367  0.94876405     0.19300
H536        H  0.12691779  0.07358892  0.84218144     0.18100
H537        H  0.16527742  0.09957975  0.84373789     0.14300
H538        H  0.11617028  0.02405667  0.94764137     0.14200
H539        H  0.18783226  0.07653379  0.93353506     0.32400
H540        H  0.09507728  0.04451178  0.85570007     0.35100
C541        C  0.43079086  0.12229856  0.37663156     0.20700
C542        C  0.44539946  0.10926495  0.36081950    -0.39100
C543        C  0.45022431  0.08980513  0.37574540     0.19700
C544        C  0.44148545  0.08395598  0.40452466     0.22400
C545        C  0.42661106  0.09686210  0.42011181    -0.39600
C546        C  0.42144751  0.11615430  0.40485920     0.21200
N547        N  0.42381999  0.14165715  0.36754085    -0.32900
C548        C  0.40965772  0.14770769  0.38981661    -0.10500
C549        C  0.40759529  0.13220332  0.41339009    -0.29300
N550        N  0.44913881  0.06494354  0.41414856    -0.45900
C551        C  0.46256856  0.05851445  0.39107542    -0.05200
C552        C  0.46360738  0.07356022  0.36667808    -0.22500
H553        H  0.45249072  0.11393801  0.33854622     0.19300
H554        H  0.41957471  0.09221938  0.44243503     0.18100
H555        H  0.39762716  0.13279626  0.43417778     0.14300
H556        H  0.47308721  0.07281837  0.34539630     0.14200
H557        H  0.42823079  0.15015817  0.34730398     0.32400
H558        H  0.44532794  0.05675697  0.43495811     0.35100
C559        C  0.58721418  0.87598342  0.64742886     0.20700
C560        C  0.59227894  0.85551864  0.65883785    -0.39100
C561        C  0.60896643  0.84510670  0.64327028     0.19700
C562        C  0.62006871  0.85451206  0.61864364     0.22400
C563        C  0.61495059  0.87495710  0.60715184    -0.39600
C564        C  0.59794985  0.88518364  0.62227032     0.21200
N565        N  0.57169249  0.88896597  0.65769119    -0.32900
C566        C  0.57234339  0.90638185  0.63857117    -0.10500
C567        C  0.58842154  0.90458794  0.61610448    -0.29300
N568        N  0.63494738  0.84111803  0.60747562    -0.45900
C569        C  0.63302650  0.82293220  0.62475553    -0.05200
C570        C  0.61702633  0.82482824  0.64733858    -0.22500
H571        H  0.58358250  0.84807464  0.67799240     0.19300
H572        H  0.62327696  0.88217374  0.58744876     0.18100
H573        H  0.59253911  0.91595518  0.59775073     0.14300
H574        H  0.61176468  0.81284793  0.66410648     0.14200
H575        H  0.56102892  0.88599163  0.67607315     0.32400
H576        H  0.64530626  0.84392671  0.58863974     0.35100
C577        C  0.52413120  0.96598383  0.53583875     0.20700
C578        C  0.52495677  0.96467688  0.50280859    -0.39100
C579        C  0.51251885  0.97956782  0.48621849     0.19700
C580        C  0.50021637  0.99471540  0.50129722     0.22400
C581        C  0.49930131  0.99596035  0.53447046    -0.39600
C582        C  0.51176275  0.98097499  0.55114801     0.21200
N583        N  0.53454025  0.95359928  0.55676221    -0.32900
C584        C  0.52880231  0.96061269  0.58574489    -0.10500
C585        C  0.51459131  0.97772264  0.58326368    -0.29300
N586        N  0.49042079  0.00743736  0.47997778    -0.45900
C587        C  0.49659373  0.00027855  0.45120745    -0.05200
C588        C  0.51026988  0.98284662  0.45420434    -0.22500
H589        H  0.53469007  0.95298431  0.49088536     0.19300
H590        H  0.48974207  0.00779705  0.54638463     0.18100
H591        H  0.50728184  0.98650186  0.60231823     0.14300
H592        H  0.51795970  0.97407879  0.43546428     0.14200
H593        H  0.54486456  0.94102622  0.55157918     0.32400
H594        H  0.48043674  0.02036526  0.48470722     0.35100
C595        C  0.53385803  0.97136938  0.25272803     0.20700
C596        C  0.53467897  0.97032538  0.28588880    -0.39100
C597        C  0.52025367  0.98352720  0.30178848     0.19700
C598        C  0.50625411  0.99691457  0.28586992     0.22400
C599        C  0.50529217  0.99780439  0.25271053    -0.39600
C600        C  0.51958600  0.98445982  0.23680573     0.21200
N601        N  0.54583015  0.96037104  0.23220427    -0.32900
C602        C  0.53899995  0.96633017  0.20298299    -0.10500
C603        C  0.52263318  0.98134051  0.20489387    -0.29300
N604        N  0.49472099  0.00838142  0.30638810    -0.45900
C605        C  0.50134402  0.00217127  0.33559367    -0.05200
C606        C  0.51714560  0.98656774  0.33369203    -0.22500
H607        H  0.54576059  0.96003021  0.29838431     0.19300
H608        H  0.49428203  0.00817713  0.24021959     0.18100
H609        H  0.51409673  0.98889978  0.18555219     0.14300
H610        H  0.52555515  0.97886189  0.35303279     0.14200
H611        H  0.55772420  0.94928952  0.23774405     0.32400
H612        H  0.48316309  0.01981212  0.30086533     0.35100
C613        C  0.41856718  0.05396423  0.87745009     0.20700
C614        C  0.40736572  0.06902179  0.85913718    -0.39100
C615        C  0.38729973  0.07488402  0.87064106     0.19700
C616        C  0.37893631  0.06621323  0.89809396     0.22400
C617        C  0.39033158  0.05146861  0.91675757    -0.39600
C618        C  0.41051838  0.04578873  0.90544302     0.21200
N619        N  0.43739685  0.04494767  0.87070511    -0.32900
C620        C  0.44147573  0.03106209  0.89468462    -0.10500
C621        C  0.42520191  0.03129954  0.91702806    -0.29300
N622        N  0.35924694  0.07381691  0.90329175    -0.45900
C623        C  0.35517311  0.08764105  0.87920862    -0.05200
C624        C  0.37232352  0.08880292  0.85843037    -0.22500
H625        H  0.41365949  0.07542770  0.83726449     0.19300
H626        H  0.38382791  0.04467557  0.93823437     0.18100
H627        H  0.42385121  0.02148699  0.93808187     0.14300
H628        H  0.37352830  0.09830652  0.83705196     0.14200
H629        H  0.44673868  0.04779324  0.85074182     0.32400
H630        H  0.34927571  0.06998991  0.92218126     0.35100
C631        C  0.51351916  0.97376751  0.80242716     0.20700
C632        C  0.52764205  0.96001744  0.78681607    -0.39100
C633        C  0.52659752  0.96045490  0.75359686     0.19700
C634        C  0.51267732  0.97368905  0.73724428     0.22400
C635        C  0.49870611  0.98751663  0.75280912    -0.39600
C636        C  0.49966366  0.98698473  0.78593265     0.21200
N637        N  0.51079038  0.97585983  0.83384134    -0.32900
C638        C  0.49503732  0.99049136  0.83724653    -0.10500
C639        C  0.48779713  0.99781185  0.80787337    -0.29300
N640        N  0.51453007  0.97095310  0.70588322    -0.45900
C641        C  0.52968633  0.95578385  0.70212192    -0.05200
C642        C  0.53761182  0.94885404  0.73136634    -0.22500
H643        H  0.53840698  0.94953120  0.79956896     0.19300
H644        H  0.48767716  0.99773162  0.74006588     0.18100
H645        H  0.47519556  0.00921013  0.80318821     0.14300
H646        H  0.54975459  0.93691990  0.73575152     0.14200
H647        H  0.51887602  0.96762561  0.85176611     0.32400
H648        H  0.50591873  0.97883855  0.68814878     0.35100
C649        C  0.51145761  0.96970686  0.98838892     0.20700
C650        C  0.52730442  0.95755951  0.00363752    -0.39100
C651        C  0.52704322  0.95796889  0.03683732     0.19700
C652        C  0.51211225  0.96953719  0.05355941     0.22400
C653        C  0.49609986  0.98143057  0.03833016    -0.39600
C654        C  0.49641572  0.98108921  0.00516392     0.21200
N655        N  0.50882738  0.97272698  0.95706690    -0.32900
C656        C  0.49199279  0.98616610  0.95392564    -0.10500
C657        C  0.48380564  0.99164234  0.98341966    -0.29300
N658        N  0.51601628  0.96832590  0.08480947    -0.45900
C659        C  0.53362738  0.95596069  0.08803660    -0.05200
C660        C  0.54085174  0.94905684  0.05863929    -0.22500
H661        H  0.53928515  0.94888378  0.99062909     0.19300
H662        H  0.48459162  0.99073223  0.05133033     0.18100
H663        H  0.47067785  0.00230509  0.98831333     0.14300
H664        H  0.55479663  0.93947882  0.05380609     0.14200
H665        H  0.51809027  0.96631874  0.93902639     0.32400
H666        H  0.50756296  0.97590893  0.10273494     0.35100
C667        C  0.88221068  0.89512950  0.16796898     0.20700
C668        C  0.89401623  0.91136830  0.18265022    -0.39100
C669        C  0.91419610  0.91545638  0.16974215     0.19700
C670        C  0.92178305  0.90455784  0.14373358     0.22400
C671        C  0.91011577  0.88813684  0.12936666    -0.39600
C672        C  0.89018188  0.88370060  0.14273092     0.21200
N673        N  0.86252346  0.88834836  0.17542909    -0.32900
C674        C  0.85814417  0.87222869  0.15517383    -0.10500
C675        C  0.87504930  0.86876542  0.13457770    -0.29300
N676        N  0.94109260  0.91185019  0.13536139    -0.45900
C677        C  0.94603839  0.92724250  0.15651274    -0.05200
C678        C  0.92971285  0.92988493  0.17845066    -0.22500
H679        H  0.88795645  0.92014678  0.20265227     0.19300
H680        H  0.91613766  0.87942196  0.10928015     0.18100
H681        H  0.87591992  0.85720298  0.11572833     0.14300
H682        H  0.92916813  0.94106291  0.19783529     0.14200
H683        H  0.85272688  0.89418879  0.19328374     0.32400
H684        H  0.95045272  0.90652982  0.11663047     0.35100
C685        C  0.65908778  0.89595417  0.15353696     0.20700
C686        C  0.64745839  0.91215141  0.16847225    -0.39100
C687        C  0.62648039  0.91503571  0.15765705     0.19700
C688        C  0.61794730  0.90300758  0.13335859     0.22400
C689        C  0.62946174  0.88663070  0.11875553    -0.39600
C690        C  0.65026974  0.88346852  0.12999160     0.21200
N691        N  0.67934325  0.89011425  0.15932732    -0.32900
C692        C  0.68331732  0.87359171  0.13965896    -0.10500
C693        C  0.66553666  0.86891078  0.12110904    -0.29300
N694        N  0.59804221  0.90942752  0.12650387    -0.45900
C695        C  0.59371524  0.92542524  0.14689570    -0.05200
C696        C  0.61100019  0.92931626  0.16687414    -0.22500
H697        H  0.65424717  0.92180483  0.18709069     0.19300
H698        H  0.62272427  0.87708167  0.09997746     0.18100
H699        H  0.66407272  0.85667120  0.10329561     0.14300
H700        H  0.61224752  0.94133169  0.18505697     0.14200
H701        H  0.68973530  0.89677921  0.17587320     0.32400
H702        H  0.58798853  0.90329991  0.10904158     0.35100
C703        C  0.87955915  0.56966649  0.10037348     0.20700
C704        C  0.89121082  0.55313563  0.08647295    -0.39100
C705        C  0.91106956  0.54873367  0.10026595     0.19700
C706        C  0.91861261  0.55968629  0.12633244     0.22400
C707        C  0.90710379  0.57654396  0.13991330    -0.39600
C708        C  0.88734536  0.58120193  0.12572422     0.21200
N709        N  0.86011137  0.57658203  0.09189487    -0.32900
C710        C  0.85554025  0.59286112  0.11163488    -0.10500
C711        C  0.87218739  0.59636533  0.13297305    -0.29300
N712        N  0.93763892  0.55188880  0.13556699    -0.45900
C713        C  0.94234541  0.53614108  0.11486037    -0.05200
C714        C  0.92620786  0.53378764  0.09242547    -0.22500
H715        H  0.88520674  0.54428867  0.06643549     0.19300
H716        H  0.91304781  0.58531659  0.16006540     0.18100
H717        H  0.87290986  0.60812512  0.15157962     0.14300
H718        H  0.92552450  0.52244823  0.07325252     0.14200
H719        H  0.85059082  0.57069594  0.07364733     0.32400
H720        H  0.94696085  0.55709170  0.15451866     0.35100
C721        C  0.59404988  0.59028268  0.62486983     0.20700
C722        C  0.59828161  0.60963472  0.64027099    -0.39100
C723        C  0.61318975  0.62302752  0.62548076     0.19700
C724        C  0.62348804  0.61730145  0.59792379     0.22400
C725        C  0.61924723  0.59797608  0.58252989    -0.39600
C726        C  0.60395239  0.58483903  0.59687097     0.21200
N727        N  0.58005238  0.57513027  0.63352210    -0.32900
C728        C  0.58077858  0.56011286  0.61059941    -0.10500
C729        C  0.59547062  0.56562964  0.58729150    -0.29300
N730        N  0.63682311  0.63281228  0.58847323    -0.45900
C731        C  0.63474380  0.64870589  0.60981782    -0.05200
C732        C  0.62012240  0.64322848  0.63325975    -0.22500
H733        H  0.59021968  0.61413308  0.66179581     0.19300
H734        H  0.62695166  0.59370021  0.56061900     0.18100
H735        H  0.59932592  0.55682466  0.56613721     0.14300
H736        H  0.61518511  0.65276939  0.65317429     0.14200
H737        H  0.57024863  0.57522049  0.65341516     0.32400
H738        H  0.64638989  0.63280027  0.56833503     0.35100
C739        C  0.43787930  0.34367987  0.37214823     0.20700
C740        C  0.45565103  0.35404457  0.38531234    -0.39100
C741        C  0.45979916  0.37465823  0.37360244     0.19700
C742        C  0.44743932  0.38399752  0.35011281     0.22400
C743        C  0.42947527  0.37378252  0.33738200    -0.39600
C744        C  0.42507616  0.35336380  0.34951995     0.21200
N745        N  0.43079692  0.32390311  0.37875922    -0.32900
C746        C  0.41316791  0.32109139  0.36058802    -0.10500
C747        C  0.40899662  0.33918643  0.34219748    -0.29300
N748        N  0.45502850  0.40338023  0.34233840    -0.45900
C749        C  0.47210115  0.40662653  0.36139629    -0.05200
C750        C  0.47554857  0.38911147  0.38136493    -0.22500
H751        H  0.46553442  0.34659535  0.40328476     0.19300
H752        H  0.41965747  0.38118742  0.31929805     0.18100
H753        H  0.39622853  0.34145240  0.32523928     0.14300
H754        H  0.48802435  0.38714764  0.39888537     0.14200
H755        H  0.43748074  0.31301242  0.39474855     0.32400
H756        H  0.44880337  0.41391559  0.32542705     0.35100
C757        C  0.52593701  0.48328314  0.45238479     0.20700
C758        C  0.53812285  0.49929251  0.46692062    -0.39100
C759        C  0.53786180  0.49936899  0.50015001     0.19700
C760        C  0.52625974  0.48469613  0.51754767     0.22400
C761        C  0.51405141  0.46871539  0.50302644    -0.39600
C762        C  0.51441677  0.46856501  0.46982157     0.21200
N763        N  0.52363691  0.47972480  0.42117679    -0.32900
C764        C  0.51063466  0.46251935  0.41873305    -0.10500
C765        C  0.50455351  0.45515463  0.44860292    -0.29300
N766        N  0.52855818  0.48821292  0.54873921    -0.45900
C767        C  0.54175314  0.50526300  0.55128225    -0.05200
C768        C  0.54790328  0.51263454  0.52144337    -0.22500
H769        H  0.54718677  0.51080339  0.45336965     0.19300
H770        H  0.50498394  0.45720520  0.51657912     0.18100
H771        H  0.49424297  0.44181024  0.45405251     0.14300
H772        H  0.55825111  0.52595959  0.51605901     0.14200
H773        H  0.53051632  0.48839724  0.40275581     0.32400
H774        H  0.52155161  0.47958997  0.56710835     0.35100
C775        C  0.42620710  0.39908229  0.84652967     0.20700
C776        C  0.41444438  0.38276165  0.83202160    -0.39100
C777        C  0.39531436  0.37712379  0.84699128     0.19700
C778        C  0.38827324  0.38721655  0.87404243     0.22400
C779        C  0.40030888  0.40309447  0.88903715    -0.39600
C780        C  0.41955063  0.40852102  0.87430540     0.21200
N781        N  0.44455106  0.40786902  0.83647061    -0.32900
C782        C  0.44972088  0.42276584  0.85830768    -0.10500
C783        C  0.43459103  0.42352146  0.88232495    -0.29300
N784        N  0.36885473  0.38011803  0.88225068    -0.45900
C785        C  0.36363298  0.36519445  0.86050351    -0.05200
C786        C  0.37982325  0.36268087  0.83837329    -0.22500
H787        H  0.41959666  0.37528043  0.81036310     0.19300
H788        H  0.39489303  0.41095522  0.91025510     0.18100
H789        H  0.43443396  0.43396698  0.90260773     0.14300
H790        H  0.37981345  0.35236306  0.81795193     0.14200
H791        H  0.45308726  0.40389926  0.81619276     0.32400
H792        H  0.35963456  0.38523872  0.90123954     0.35100
C793        C  0.52253564  0.48160941  0.76514315     0.20700
C794        C  0.53773950  0.49507700  0.75111225    -0.39100
C795        C  0.53616279  0.49752724  0.71814215     0.19700
C796        C  0.52076007  0.48716453  0.70049199     0.22400
C797        C  0.50558002  0.47369293  0.71452438    -0.39600
C798        C  0.50705984  0.47135467  0.74750756     0.21200
N799        N  0.52028098  0.47709305  0.79607903    -0.32900
C800        C  0.50321972  0.46389516  0.79826076    -0.10500
C801        C  0.49458094  0.45991471  0.76838800    -0.29300
N802        N  0.52265804  0.49207145  0.66963118    -0.45900
C803        C  0.53927532  0.50579687  0.66755565    -0.05200
C804        C  0.54809428  0.50962297  0.69736724    -0.22500
H805        H  0.54977170  0.50321667  0.76489199     0.19300
H806        H  0.49340085  0.46574675  0.70078515     0.18100
H807        H  0.48079992  0.45028141  0.76276897     0.14300
H808        H  0.56149958  0.51976797  0.70302348     0.14200
H809        H  0.52963438  0.48287945  0.81464013     0.32400
H810        H  0.51313227  0.48651648  0.65110313     0.35100
C811        C  0.62109673  0.55919852  0.11489474     0.20700
C812        C  0.63352749  0.57517540  0.12892179    -0.39100
C813        C  0.65207534  0.58087967  0.11253653     0.19700
C814        C  0.65806320  0.57110378  0.08467288     0.22400
C815        C  0.64547157  0.55535743  0.07039212    -0.39600
C816        C  0.62671478  0.54995090  0.08646935     0.21200
N817        N  0.60279567  0.55084841  0.12581145    -0.32900
C818        C  0.59659300  0.53641622  0.10389942    -0.10500
C819        C  0.61104491  0.53548942  0.07897980    -0.29300
N820        N  0.67682051  0.57880895  0.07446810    -0.45900
C821        C  0.68257170  0.59384429  0.09574320    -0.05200
C822        C  0.66750394  0.59569372  0.11967141    -0.22500
H823        H  0.62910038  0.58261192  0.15096858     0.19300
H824        H  0.64995193  0.54784488  0.04842448     0.18100
H825        H  0.61027121  0.52541131  0.05831575     0.14300
H826        H  0.66805382  0.60612812  0.13995003     0.14200
H827        H  0.59490539  0.55486877  0.14663700     0.32400
H828        H  0.68513267  0.57423515  0.05428144     0.35100
C829        C  0.52189278  0.48462705  0.20191229     0.20700
C830        C  0.50727924  0.47134327  0.21759778    -0.39100
C831        C  0.50857545  0.47119311  0.25077949     0.19700
C832        C  0.52312879  0.48353716  0.26713475     0.22400
C833        C  0.53756154  0.49704037  0.25145173    -0.39600
C834        C  0.53643783  0.49699387  0.21824189     0.21200
N835        N  0.52464892  0.48671547  0.17048460    -0.32900
C836        C  0.54115703  0.50044627  0.16669921    -0.10500
C837        C  0.54886344  0.50724790  0.19599879    -0.29300
N838        N  0.52186471  0.47971355  0.29845453    -0.45900
C839        C  0.50653498  0.46464891  0.30207451    -0.05200
C840        C  0.49780975  0.45904939  0.27284139    -0.22500
H841        H  0.49615606  0.46135434  0.20487693     0.19300
H842        H  0.54924441  0.50639618  0.26413303     0.18100
H843        H  0.56212899  0.51784074  0.20043721     0.14300
H844        H  0.48567843  0.44719605  0.26826756     0.14200
H845        H  0.51611836  0.47893706  0.15275294     0.32400
H846        H  0.53128733  0.48644936  0.31615020     0.35100
C847        C  0.53737471  0.49062083  0.99995274     0.20700
C848        C  0.53955614  0.49107908  0.96692180    -0.39100
C849        C  0.52449674  0.47922880  0.94991554     0.19700
C850        C  0.50852679  0.46776965  0.96473426     0.22400
C851        C  0.50636638  0.46728765  0.99779769    -0.39600
C852        C  0.52140274  0.47919861  0.01482572     0.21200
N853        N  0.54962165  0.50061050  0.02128992    -0.32900
C854        C  0.54145553  0.49558902  0.05003717    -0.10500
C855        C  0.52378506  0.48224938  0.04699046    -0.29300
N856        N  0.49613666  0.45800524  0.94329508    -0.45900
C857        C  0.50421458  0.46330385  0.91459731    -0.05200
C858        C  0.52195997  0.47651238  0.91776425    -0.22500
H859        H  0.55201808  0.50007511  0.95532267     0.19300
H860        H  0.49384397  0.45837413  0.00938486     0.18100
H861        H  0.51404547  0.47567879  0.06571571     0.14300
H862        H  0.53159634  0.48330738  0.89908914     0.14200
H863        H  0.56277399  0.51030448  0.01652702     0.32400
H864        H  0.48289687  0.44840934  0.94792555     0.35100
loop_ 
_geom_bond_atom_site_label_1 
_geom_bond_atom_site_label_2 
_geom_bond_distance 
_geom_bond_site_symmetry_2 
_ccdc_geom_bond_type 
C1            N2   1.359       .  A
C1            N6   1.355       .  A
C1          C818   1.472       .  S
N2            C3   1.363       .  A
C3            N4   1.363       .  A
C3          C836   1.480       .  S
N4            C5   1.362       .  A
C5            N6   1.355       .  A
C5          C854   1.475       .  S
C7            N8   1.357       .  A
C7           N12   1.361       .  A
C7          C782   1.473       .  S
N8            C9   1.356       .  A
C9           N10   1.359       .  A
C9          C857   1.474       .  S
N10          C11   1.361       .  A
C11          N12   1.364       .  A
C11         C800   1.479       .  S
C13          N14   1.359       .  A
C13          N18   1.358       .  A
C13         C749   1.474       .  S
N14          C15   1.361       .  A
C15          N16   1.362       .  A
C15         C839   1.480       .  S
N16          C17   1.362       .  A
C17          N18   1.360       .  A
C17         C764   1.479       .  S
C19          N20   1.359       .  A
C19          N24   1.360       .  A
C19         C728   1.474       .  S
N20          C21   1.360       .  A
C21          N22   1.360       .  A
C21         C803   1.476       .  S
N22          C23   1.360       .  A
C23          N24   1.360       .  A
C23         C767   1.479       .  S
N25          C29   1.345       .  A
N25          N26   1.323       .  A
N25         Cu33   2.082       .  S
N26          C27   1.345       .  A
N26         Cu32   2.071       .  S
C27          C28   1.381       .  A
C27          H30   1.082       .  S
C28         C710   1.471       .  S
C28          C29   1.383       .  A
C29          H31   1.082       .  S
Cu32         N35   2.070       .  S
Cu33         N43   2.080       .  S
Cu34         N36   2.079       .  S
Cu34         N42   2.079       .  S
N35          C39   1.344       .  A
N35          N36   1.321       .  A
N36          C37   1.347       .  A
C37          C38   1.386       .  A
C37          H40   1.082       .  S
C38          C62   1.475       .  S
C38          C39   1.383       .  A
C39          H41   1.082       .  S
N42          C46   1.344       .  A
N42          N43   1.323       .  A
N43          C44   1.348       .  A
C44          C45   1.383       .  A
C44          H47   1.082       .  S
C45         C821   1.470       .  S
C45          C46   1.381       .  A
C46          H48   1.082       .  S
N49          C53   1.347       .  A
N49          N50   1.323       .  A
N49         Cu57   2.081       .  S
N50          C51   1.347       .  A
N50         Cu56   2.085       .  S
C51          C52   1.384       .  A
C51          H54   1.082       .  S
C52         C674   1.474       .  S
C52          C53   1.383       .  A
C53          H55   1.082       .  S
Cu56         N59   2.084       .  S
Cu57         N67   2.081       .  S
Cu58         N60   2.077       .  S
Cu58         N66   2.077       .  S
N59          C63   1.346       .  A
N59          N60   1.323       .  A
N60          C61   1.347       .  A
C61          C62   1.384       .  A
C61          H64   1.082       .  S
C62          C63   1.385       .  A
C63          H65   1.082       .  S
N66          C70   1.346       .  A
N66          N67   1.323       .  A
N67          C68   1.347       .  A
C68          C69   1.383       .  A
C68          H71   1.082       .  S
C69         C692   1.473       .  S
C69          C70   1.383       .  A
C70          H72   1.082       .  S
C73          N74   1.357       .  A
C73          N78   1.355       .  A
C73         C620   1.471       .  S
N74          C75   1.360   1_545  A
C75          N76   1.363       .  A
C75         C656   1.476       .  S
N76          C77   1.362       .  A
C77          N78   1.358   1_565  A
C77         C638   1.476       .  S
C79          N80   1.359       .  A
C79          N84   1.357       .  A
C79         C695   1.470       .  S
N80          C81   1.360       .  A
C81          N82   1.360       .  A
C81         C602   1.474       .  S
N82          C83   1.359       .  A
C83          N84   1.358       .  A
C83         C659   1.475       .  S
C85          N86   1.356       .  A
C85          N90   1.358       .  A
C85         C566   1.469       .  S
N86          C87   1.357       .  A
C87          N88   1.360       .  A
C87         C584   1.474       .  S
N88          C89   1.362       .  A
C89          N90   1.361       .  A
C89         C641   1.475       .  S
C91          N92   1.359       .  A
C91          N96   1.360       .  A
C91         C551   1.471       .  S
N92          C93   1.357       .  A
C93          N94   1.357       .  A
C93         C605   1.473       .  S
N94          C95   1.359       .  A
C95          N96   1.359       .  A
C95         C587   1.474       .  S
N97         C101   1.346       .  A
N97          N98   1.323       .  A
N97        Cu105   2.079       .  S
N98          C99   1.346       .  A
N98        Cu104   2.083       .  S
C99         C100   1.384       .  A
C99         H102   1.082       .  S
C100        C623   1.474       .  S
C100        C101   1.383       .  A
C101        H103   1.082       .  S
Cu104       N107   2.085       .  S
Cu105       N115   2.078       .  S
Cu106       N108   2.081       .  S
Cu106       N114   2.080       .  S
N107        C111   1.349       .  A
N107        N108   1.323       .  A
N108        C109   1.345       .  A
C109        C110   1.384       .  A
C109        H112   1.082       .  S
C110        C134   1.478       .  S
C110        C111   1.387       .  A
C111        H113   1.082       .  S
N114        C118   1.348       .  A
N114        N115   1.323       .  A
N115        C116   1.345       .  A
C116        C117   1.381       .  A
C116        H119   1.082       .  S
C117        C530   1.472       .  S
C117        C118   1.384       .  A
C118        H120   1.082       .  S
N121        C125   1.347       .  A
N121        N122   1.322       .  A
N121       Cu129   2.076       .  S
N122        C123   1.346       .  A
N122       Cu128   2.080       .  S
C123        C124   1.383       .  A
C123        H126   1.082       .  S
C124        C785   1.472       .  S
C124        C125   1.383       .  A
C125        H127   1.082       .  S
Cu128       N131   2.081       .  S
Cu129       N139   2.075       .  S
Cu130       N132   2.087       .  S
Cu130       N138   2.087       .  S
N131        C135   1.348       .  A
N131        N132   1.323       .  A
N132        C133   1.346       .  A
C133        C134   1.385       .  A
C133        H136   1.082       .  S
C134        C135   1.385       .  A
C135        H137   1.082       .  S
N138        C142   1.348       .  A
N138        N139   1.323       .  A
N139        C140   1.345       .  A
C140        C141   1.381       .  A
C140        H143   1.082       .  S
C141        C512   1.473       .  S
C141        C142   1.386       .  A
C142        H144   1.082       .  S
C145        N146   1.360       .  A
C145        N150   1.364       .  A
C145        C461   1.483       .  S
N146        C147   1.359       .  A
C147        N148   1.358       .  A
C147        C476   1.475       .  S
N148        C149   1.358       .  A
C149        N150   1.365       .  A
C149        C494   1.481       .  S
C151        N152   1.358       .  A
C151        N156   1.359       .  A
C151        C422   1.470       .  S
N152        C153   1.360   1_655  A
C153        N154   1.361       .  A
C153        C443   1.477       .  S
N154        C155   1.361   1_455  A
C155        N156   1.358       .  A
C155        C497   1.479   1_655  S
C157        N158   1.358       .  A
C157        N162   1.359       .  A
C157        C677   1.473       .  S
N158        C159   1.359       .  A
C159        N160   1.361   1_655  A
C159        C479   1.476   1_655  S
N160        C161   1.361   1_455  A
C161        N162   1.361       .  A
C161        C404   1.478   1_655  S
C163        N164   1.356       .  A
C163        N168   1.360       .  A
C163        C533   1.472       .  S
N164        C165   1.357   1_545  A
C165        N166   1.361       .  A
C165        C440   1.475       .  S
N166        C167   1.362       .  A
C167        N168   1.361   1_565  A
C167        C407   1.478       .  S
N169        C173   1.347       .  A
N169        N170   1.322       .  A
N169       Cu177   2.077       .  S
N170        C171   1.346       .  A
N170       Cu176   2.076       .  S
C171        C172   1.383       .  A
C171        H174   1.082       .  S
C172        C731   1.473       .  S
C172        C173   1.384       .  A
C173        H175   1.082       .  S
Cu176       N179   2.077       .  S
Cu177       N187   2.077       .  S
Cu178       N180   2.085       .  S
Cu178       N186   2.085       .  S
N179        C183   1.345       .  A
N179        N180   1.322       .  A
N180        C181   1.348       .  A
C181        C182   1.387       .  A
C181        H184   1.082       .  S
C182        C206   1.476       .  S
C182        C183   1.383       .  A
C183        H185   1.082       .  S
N186        C190   1.348       .  A
N186        N187   1.324       .  A
N187        C188   1.344       .  A
C188        C189   1.382       .  A
C188        H191   1.082       .  S
C189        C569   1.473       .  S
C189        C190   1.384       .  A
C190        H192   1.082       .  S
N193        C197   1.347       .  A
N193        N194   1.322       .  A
N193       Cu201   2.080       .  S
N194        C195   1.349       .  A
N194       Cu200   2.088       .  S
C195        C196   1.387       .  A
C195        H198   1.082       .  S
C196        C386   1.481       .  S
C196        C197   1.385       .  A
C197        H199   1.082       .  S
Cu200       N203   2.088       .  S
Cu201       N211   2.080       .  S
Cu202       N204   2.075       .  S
Cu202       N210   2.075       .  S
N203        C207   1.345       .  A
N203        N204   1.323       .  A
N204        C205   1.347       .  A
C205        C206   1.384       .  A
C205        H208   1.082       .  S
C206        C207   1.385       .  A
C207        H209   1.082       .  S
N210        C214   1.344       .  A
N210        N211   1.323       .  A
N211        C212   1.346       .  A
C212        C213   1.383       .  A
C212        H215   1.082       .  S
C213        C425   1.473       .  S
C213        C214   1.384       .  A
C214        H216   1.082       .  S
C217        N218   1.362       .  A
C217        N222   1.360       .  A
C217        C332   1.480       .  S
N218        C219   1.362       .  A
C219        N220   1.361       .  A
C219        C368   1.485       .  S
N220        C221   1.362       .  A
C221        N222   1.362       .  A
C221        C350   1.481       .  S
C223        N224   1.361       .  A
C223        N228   1.361       .  A
C223        C389   1.481       .  S
N224        C225   1.362       .  A
C225        N226   1.365   1_655  A
C225        C371   1.486   1_655  S
N226        C227   1.363       .  A
C227        N228   1.362   1_455  A
C227        C317   1.487       .  S
C229        N230   1.360       .  A
C229        N234   1.360       .  A
C229        C713   1.473       .  S
N230        C231   1.361       .  A
C231        N232   1.360       .  A
C231        C353   1.478       .  S
N232        C233   1.359       .  A
C233        N234   1.360       .  A
C233        C296   1.479       .  S
C235        N236   1.360       .  A
C235        N240   1.359       .  A
C235        C515   1.472       .  S
N236        C237   1.362       .  A
C237        N238   1.362       .  A
C237        C299   1.482       .  S
N238        C239   1.361       .  A
C239        N240   1.358       .  A
C239        C314   1.482       .  S
N241        C245   1.347       .  A
N241        N242   1.323       .  A
N241       Cu249   2.086       .  S
N242        C243   1.351       .  A
N242       Cu248   2.097       .  S
C243        C244   1.387       .  A
C243        H246   1.082       .  S
C244        C458   1.479       .  S
C244        C245   1.383       .  A
C245        H247   1.082       .  S
Cu248       N251   2.097       .  S
Cu249       N259   2.086       .  S
Cu250       N252   2.093       .  S
Cu250       N258   2.094       .  S
N251        C255   1.348       .  A
N251        N252   1.324       .  A
N252        C253   1.350       .  A
C253        C254   1.386       .  A
C253        H256   1.082       .  S
C254        C278   1.482       .  S
C254        C255   1.387       .  A
C255        H257   1.082       .  S
N258        C262   1.349       .  A
N258        N259   1.324       .  A
N259        C260   1.347       .  A
C260        C261   1.384       .  A
C260        H263   1.082       .  S
C261        C335   1.479       .  S
C261        C262   1.386       .  A
C262        H264   1.082       .  S
N265        C269   1.345       .  A
N265        N266   1.323       .  A
N265       Cu273   2.070       .  S
N266        C267   1.350       .  A
N266       Cu272   2.100       .  S
C267        C268   1.388       .  A
C267        H270   1.082       .  S
C268        C746   1.477       .  S
C268        C269   1.381       .  A
C269        H271   1.082       .  S
Cu272       N275   2.102       .  S
Cu273       N283   2.069       .  S
Cu274       N276   2.081       .  S
Cu274       N282   2.079       .  S
N275        C279   1.350       .  A
N275        N276   1.324       .  A
N276        C277   1.346       .  A
C277        C278   1.384       .  A
C277        H280   1.082       .  S
C278        C279   1.389       .  A
C279        H281   1.082       .  S
N282        C286   1.347       .  A
N282        N283   1.322       .  A
N283        C284   1.344       .  A
C284        C285   1.380       .  A
C284        H287   1.082       .  S
C285        C548   1.468       .  S
C285        C286   1.383       .  A
C286        H288   1.082       .  S
C289        N295   1.346       .  A
C289        C294   1.384       .  A
C289        C290   1.406       .  A
C290        C291   1.406   1_554  A
C290        H301   1.082       .  S
C291        C300   1.382       .  A
C291        C292   1.384       .  A
C292        N298   1.346       .  A
C292        C293   1.406       .  A
C293        C294   1.405   1_556  A
C293        H302   1.082   1_455  S
C294        C297   1.381   1_455  A
N295        C296   1.357   1_455  A
N295        H305   1.044       .  S
C296        C297   1.397       .  A
C297        H303   1.082       .  S
N298        C299   1.357       .  A
N298        H306   1.044       .  S
C299        C300   1.398       .  A
C300        H304   1.082       .  S
C307        N313   1.346       .  A
C307        C312   1.384       .  A
C307        C308   1.405       .  A
C308        C309   1.405       .  A
C308        H319   1.082       .  S
C309        C318   1.380       .  A
C309        C310   1.383       .  A
C310        N316   1.350       .  A
C310        C311   1.410       .  A
C311        C312   1.410       .  A
C311        H320   1.082       .  S
C312        C315   1.385       .  A
N313        C314   1.356       .  A
N313        H323   1.045       .  S
C314        C315   1.400       .  A
C315        H321   1.082       .  S
N316        C317   1.360       .  A
N316        H324   1.045       .  S
C317        C318   1.397       .  A
C318        H322   1.082   1_455  S
C325        N331   1.348       .  A
C325        C330   1.384       .  A
C325        C326   1.409       .  A
C326        C327   1.408       .  A
C326        H337   1.082       .  S
C327        C336   1.384       .  A
C327        C328   1.384       .  A
C328        N334   1.346       .  A
C328        C329   1.405       .  A
C329        C330   1.405       .  A
C329        H338   1.082       .  S
C330        C333   1.381       .  A
N331        C332   1.358       .  A
N331        H341   1.045       .  S
C332        C333   1.396       .  A
C333        H339   1.082       .  S
N334        C335   1.356       .  A
N334        H342   1.044       .  S
C335        C336   1.398       .  A
C336        H340   1.082       .  S
C343        N349   1.346       .  A
C343        C348   1.384       .  A
C343        C344   1.406       .  A
C344        C345   1.405       .  A
C344        H355   1.082       .  S
C345        C354   1.380       .  A
C345        C346   1.384       .  A
C346        N352   1.346   1_455  A
C346        C347   1.406       .  A
C347        C348   1.405       .  A
C347        H356   1.082   1_455  S
C348        C351   1.381       .  A
N349        C350   1.357       .  A
N349        H359   1.045       .  S
C350        C351   1.397       .  A
C351        H357   1.082       .  S
N352        C353   1.357       .  A
N352        H360   1.045       .  S
C353        C354   1.397   1_655  A
C354        H358   1.082       .  S
C361        N367   1.346       .  A
C361        C366   1.384       .  A
C361        C362   1.406       .  A
C362        C363   1.405       .  A
C362        H373   1.082       .  S
C363        C372   1.382       .  A
C363        C364   1.383       .  A
C364        N370   1.349   1_455  A
C364        C365   1.410       .  A
C365        C366   1.410       .  A
C365        H374   1.082   1_455  S
C366        C369   1.386       .  A
N367        C368   1.357       .  A
N367        H377   1.044       .  S
C368        C369   1.401       .  A
C369        H375   1.082       .  S
N370        C371   1.360   1_655  A
N370        H378   1.044       .  S
C371        C372   1.397       .  A
C372        H376   1.082       .  S
C379        N385   1.346       .  A
C379        C384   1.384       .  A
C379        C380   1.406       .  A
C380        C381   1.405       .  A
C380        H391   1.082       .  S
C381        C390   1.382       .  A
C381        C382   1.384       .  A
C382        N388   1.347       .  A
C382        C383   1.408       .  A
C383        C384   1.407       .  A
C383        H392   1.082       .  S
C384        C387   1.384       .  A
N385        C386   1.357       .  A
N385        H395   1.044       .  S
C386        C387   1.398       .  A
C387        H393   1.082       .  S
N388        C389   1.358       .  A
N388        H396   1.045       .  S
C389        C390   1.397       .  A
C390        H394   1.082       .  S
C397        N403   1.346       .  A
C397        C402   1.384       .  A
C397        C398   1.406       .  A
C398        C399   1.406       .  A
C398        H409   1.082       .  S
C399        C408   1.381   1_554  A
C399        C400   1.384   1_554  A
C400        N406   1.345       .  A
C400        C401   1.404   1_556  A
C401        C402   1.403       .  A
C401        H410   1.082   1_454  S
C402        C405   1.378   1_455  A
N403        C404   1.358       .  A
N403        H413   1.044       .  S
C404        C405   1.396   1_455  A
C405        H411   1.082       .  S
N406        C407   1.356       .  A
N406        H414   1.044       .  S
C407        C408   1.398       .  A
C408        H412   1.082   1_565  S
C415        N421   1.342       .  A
C415        C420   1.385       .  A
C415        C416   1.401       .  A
C416        C417   1.400       .  A
C416        H427   1.082       .  S
C417        C426   1.375       .  A
C417        C418   1.384       .  A
C418        N424   1.346       .  A
C418        C419   1.406       .  A
C419        C420   1.406       .  A
C419        H428   1.082       .  S
C420        C423   1.382       .  A
N421        C422   1.354       .  A
N421        H431   1.044       .  S
C422        C423   1.397       .  A
C423        H429   1.082       .  S
N424        C425   1.357       .  A
N424        H432   1.044       .  S
C425        C426   1.393       .  A
C426        H430   1.082       .  S
C433        N439   1.343       .  A
C433        C438   1.384       .  A
C433        C434   1.405       .  A
C434        C435   1.403       .  A
C434        H445   1.082       .  S
C435        C444   1.380       .  A
C435        C436   1.384       .  A
C436        N442   1.344       .  A
C436        C437   1.406       .  A
C437        C438   1.404       .  A
C437        H446   1.082       .  S
C438        C441   1.382       .  A
N439        C440   1.356       .  A
N439        H449   1.045   1_565  S
C440        C441   1.396       .  A
C441        H447   1.082       .  S
N442        C443   1.357       .  A
N442        H450   1.045   1_455  S
C443        C444   1.397       .  A
C444        H448   1.082       .  S
C451        N457   1.349       .  A
C451        C456   1.384       .  A
C451        C452   1.409       .  A
C452        C453   1.408       .  A
C452        H463   1.082       .  S
C453        C462   1.385       .  A
C453        C454   1.384       .  A
C454        N460   1.345       .  A
C454        C455   1.406       .  A
C455        C456   1.405       .  A
C455        H464   1.082       .  S
C456        C459   1.381       .  A
N457        C458   1.357       .  A
N457        H467   1.044       .  S
C458        C459   1.395       .  A
C459        H465   1.082       .  S
N460        C461   1.357       .  A
N460        H468   1.045       .  S
C461        C462   1.398       .  A
C462        H466   1.082       .  S
C469        N475   1.345   1_565  A
C469        C474   1.384       .  A
C469        C470   1.406       .  A
C470        C471   1.405       .  A
C470        H481   1.082   1_565  S
C471        C480   1.381       .  A
C471        C472   1.384       .  A
C472        N478   1.343   1_455  A
C472        C473   1.404       .  A
C473        C474   1.402       .  A
C473        H482   1.082   1_455  S
C474        C477   1.378       .  A
N475        C476   1.357       .  A
N475        H485   1.045       .  S
C476        C477   1.396   1_545  A
C477        H483   1.082       .  S
N478        C479   1.356   1_655  A
N478        H486   1.045       .  S
C479        C480   1.397       .  A
C480        H484   1.082       .  S
C487        N493   1.346       .  A
C487        C492   1.383       .  A
C487        C488   1.408       .  A
C488        C489   1.406       .  A
C488        H499   1.082   1_455  S
C489        C498   1.383   1_455  A
C489        C490   1.384       .  A
C490        N496   1.345       .  A
C490        C491   1.405       .  A
C491        C492   1.404       .  A
C491        H500   1.082   1_565  S
C492        C495   1.382   1_565  A
N493        C494   1.359   1_565  A
N493        H503   1.044       .  S
C494        C495   1.396       .  A
C495        H501   1.082       .  S
N496        C497   1.356       .  A
N496        H504   1.043       .  S
C497        C498   1.399   1_455  A
C498        H502   1.083       .  S
C505        N511   1.345       .  A
C505        C510   1.384       .  A
C505        C506   1.408       .  A
C506        C507   1.406       .  A
C506        H517   1.082       .  S
C507        C516   1.384       .  A
C507        C508   1.385       .  A
C508        N514   1.342       .  A
C508        C509   1.402       .  A
C509        C510   1.401       .  A
C509        H518   1.082       .  S
C510        C513   1.379       .  A
N511        C512   1.357       .  A
N511        H521   1.044       .  S
C512        C513   1.393       .  A
C513        H519   1.082       .  S
N514        C515   1.354       .  A
N514        H522   1.045       .  S
C515        C516   1.398       .  A
C516        H520   1.082       .  S
C523        N529   1.343       .  A
C523        C528   1.385       .  A
C523        C524   1.404       .  A
C524        C525   1.402       .  A
C524        H535   1.082       .  S
C525        C534   1.379       .  A
C525        C526   1.384       .  A
C526        N532   1.344       .  A
C526        C527   1.405       .  A
C527        C528   1.404       .  A
C527        H536   1.082       .  S
C528        C531   1.381       .  A
N529        C530   1.355       .  A
N529        H539   1.045       .  S
C530        C531   1.395       .  A
C531        H537   1.082       .  S
N532        C533   1.356       .  A
N532        H540   1.045       .  S
C533        C534   1.394       .  A
C534        H538   1.082       .  S
C541        N547   1.343       .  A
C541        C546   1.385       .  A
C541        C542   1.403       .  A
C542        C543   1.402       .  A
C542        H553   1.082       .  S
C543        C552   1.377       .  A
C543        C544   1.385       .  A
C544        N550   1.344       .  A
C544        C545   1.405       .  A
C545        C546   1.404       .  A
C545        H554   1.082       .  S
C546        C549   1.380       .  A
N547        C548   1.354       .  A
N547        H557   1.044       .  S
C548        C549   1.394       .  A
C549        H555   1.082       .  S
N550        C551   1.356       .  A
N550        H558   1.045       .  S
C551        C552   1.395       .  A
C552        H556   1.083       .  S
C559        N565   1.345       .  A
C559        C564   1.385       .  A
C559        C560   1.403       .  A
C560        C561   1.403       .  A
C560        H571   1.082       .  S
C561        C570   1.377       .  A
C561        C562   1.385       .  A
C562        N568   1.345       .  A
C562        C563   1.404       .  A
C563        C564   1.404       .  A
C563        H572   1.082       .  S
C564        C567   1.378       .  A
N565        C566   1.355       .  A
N565        H575   1.044       .  S
C566        C567   1.395       .  A
C567        H573   1.082       .  S
N568        C569   1.356       .  A
N568        H576   1.045       .  S
C569        C570   1.395       .  A
C570        H574   1.082       .  S
C577        N583   1.341       .  A
C577        C582   1.384       .  A
C577        C578   1.401       .  A
C578        C579   1.400       .  A
C578        H589   1.082       .  S
C579        C588   1.375       .  A
C579        C580   1.384       .  A
C580        N586   1.346   1_565  A
C580        C581   1.407       .  A
C581        C582   1.406       .  A
C581        H590   1.082   1_565  S
C582        C585   1.383       .  A
N583        C584   1.355       .  A
N583        H593   1.045       .  S
C584        C585   1.398       .  A
C585        H591   1.082       .  S
N586        C587   1.357       .  A
N586        H594   1.045       .  S
C587        C588   1.394   1_545  A
C588        H592   1.083       .  S
C595        N601   1.344       .  A
C595        C600   1.384       .  A
C595        C596   1.404       .  A
C596        C597   1.403       .  A
C596        H607   1.082       .  S
C597        C606   1.378       .  A
C597        C598   1.384       .  A
C598        N604   1.344   1_565  A
C598        C599   1.404       .  A
C599        C600   1.403       .  A
C599        H608   1.082   1_565  S
C600        C603   1.379       .  A
N601        C602   1.356       .  A
N601        H611   1.044       .  S
C602        C603   1.396       .  A
C603        H609   1.082       .  S
N604        C605   1.356       .  A
N604        H612   1.044       .  S
C605        C606   1.396   1_545  A
C606        H610   1.082       .  S
C613        N619   1.343       .  A
C613        C618   1.385       .  A
C613        C614   1.403       .  A
C614        C615   1.403       .  A
C614        H625   1.082       .  S
C615        C624   1.379       .  A
C615        C616   1.384       .  A
C616        N622   1.345       .  A
C616        C617   1.405       .  A
C617        C618   1.404       .  A
C617        H626   1.082       .  S
C618        C621   1.380       .  A
N619        C620   1.355       .  A
N619        H629   1.045       .  S
C620        C621   1.395       .  A
C621        H627   1.082       .  S
N622        C623   1.356       .  A
N622        H630   1.044       .  S
C623        C624   1.395       .  A
C624        H628   1.082       .  S
C631        N637   1.347       .  A
C631        C636   1.384       .  A
C631        C632   1.406       .  A
C632        C633   1.406       .  A
C632        H643   1.082       .  S
C633        C642   1.380       .  A
C633        C634   1.384       .  A
C634        N640   1.344       .  A
C634        C635   1.402       .  A
C635        C636   1.402       .  A
C635        H644   1.082       .  S
C636        C639   1.375       .  A
N637        C638   1.357       .  A
N637        H647   1.044       .  S
C638        C639   1.395       .  A
C639        H645   1.083   1_565  S
N640        C641   1.355       .  A
N640        H648   1.044       .  S
C641        C642   1.397       .  A
C642        H646   1.082       .  S
C649        N655   1.346       .  A
C649        C654   1.384   1_556  A
C649        C650   1.405   1_556  A
C650        C651   1.404       .  A
C650        H661   1.082   1_554  S
C651        C660   1.378       .  A
C651        C652   1.384       .  A
C652        N658   1.345       .  A
C652        C653   1.403       .  A
C653        C654   1.403       .  A
C653        H662   1.082       .  S
C654        C657   1.377   1_554  A
N655        C656   1.357       .  A
N655        H665   1.044       .  S
C656        C657   1.396       .  A
C657        H663   1.082   1_565  S
N658        C659   1.356       .  A
N658        H666   1.044       .  S
C659        C660   1.396       .  A
C660        H664   1.082       .  S
C667        N673   1.346       .  A
C667        C672   1.384       .  A
C667        C668   1.406       .  A
C668        C669   1.405       .  A
C668        H679   1.082       .  S
C669        C678   1.381       .  A
C669        C670   1.385       .  A
C670        N676   1.345       .  A
C670        C671   1.404       .  A
C671        C672   1.403       .  A
C671        H680   1.082       .  S
C672        C675   1.379       .  A
N673        C674   1.356       .  A
N673        H683   1.044       .  S
C674        C675   1.394       .  A
C675        H681   1.082       .  S
N676        C677   1.355       .  A
N676        H684   1.045       .  S
C677        C678   1.396       .  A
C678        H682   1.082       .  S
C685        N691   1.345       .  A
C685        C690   1.384       .  A
C685        C686   1.405       .  A
C686        C687   1.404       .  A
C686        H697   1.082       .  S
C687        C696   1.380       .  A
C687        C688   1.385       .  A
C688        N694   1.343       .  A
C688        C689   1.403       .  A
C689        C690   1.402       .  A
C689        H698   1.082       .  S
C690        C693   1.378       .  A
N691        C692   1.356       .  A
N691        H701   1.044       .  S
C692        C693   1.395       .  A
C693        H699   1.082       .  S
N694        C695   1.355       .  A
N694        H702   1.045       .  S
C695        C696   1.395       .  A
C696        H700   1.082       .  S
C703        N709   1.342       .  A
C703        C708   1.385       .  A
C703        C704   1.402       .  A
C704        C705   1.401       .  A
C704        H715   1.082       .  S
C705        C714   1.377       .  A
C705        C706   1.384       .  A
C706        N712   1.346       .  A
C706        C707   1.407       .  A
C707        C708   1.406       .  A
C707        H716   1.082       .  S
C708        C711   1.381       .  A
N709        C710   1.354       .  A
N709        H719   1.044       .  S
C710        C711   1.397       .  A
C711        H717   1.082       .  S
N712        C713   1.357       .  A
N712        H720   1.045       .  S
C713        C714   1.394       .  A
C714        H718   1.082       .  S
C721        N727   1.345       .  A
C721        C726   1.384       .  A
C721        C722   1.405       .  A
C722        C723   1.404       .  A
C722        H733   1.082       .  S
C723        C732   1.381       .  A
C723        C724   1.384       .  A
C724        N730   1.344       .  A
C724        C725   1.404       .  A
C725        C726   1.403       .  A
C725        H734   1.082       .  S
C726        C729   1.379       .  A
N727        C728   1.356       .  A
N727        H737   1.045       .  S
C728        C729   1.395       .  A
C729        H735   1.082       .  S
N730        C731   1.355       .  A
N730        H738   1.044       .  S
C731        C732   1.396       .  A
C732        H736   1.082       .  S
C739        N745   1.345       .  A
C739        C744   1.384       .  A
C739        C740   1.407       .  A
C740        C741   1.406       .  A
C740        H751   1.082       .  S
C741        C750   1.382       .  A
C741        C742   1.384       .  A
C742        N748   1.345       .  A
C742        C743   1.405       .  A
C743        C744   1.404       .  A
C743        H752   1.082       .  S
C744        C747   1.381       .  A
N745        C746   1.357       .  A
N745        H755   1.044       .  S
C746        C747   1.395       .  A
C747        H753   1.082       .  S
N748        C749   1.355       .  A
N748        H756   1.045       .  S
C749        C750   1.397       .  A
C750        H754   1.082       .  S
C757        N763   1.347       .  A
C757        C762   1.384       .  A
C757        C758   1.406       .  A
C758        C759   1.405       .  A
C758        H769   1.082       .  S
C759        C768   1.380       .  A
C759        C760   1.384       .  A
C760        N766   1.346       .  A
C760        C761   1.405       .  A
C761        C762   1.405       .  A
C761        H770   1.082       .  S
C762        C765   1.379       .  A
N763        C764   1.357       .  A
N763        H773   1.042       .  S
C764        C765   1.397       .  A
C765        H771   1.082       .  S
N766        C767   1.357       .  A
N766        H774   1.043       .  S
C767        C768   1.397       .  A
C768        H772   1.082       .  S
C775        N781   1.347       .  A
C775        C780   1.385       .  A
C775        C776   1.405       .  A
C776        C777   1.405       .  A
C776        H787   1.082       .  S
C777        C786   1.379       .  A
C777        C778   1.385       .  A
C778        N784   1.345       .  A
C778        C779   1.403       .  A
C779        C780   1.403       .  A
C779        H788   1.082       .  S
C780        C783   1.376       .  A
N781        C782   1.356       .  A
N781        H791   1.045       .  S
C782        C783   1.395       .  A
C783        H789   1.082       .  S
N784        C785   1.355       .  A
N784        H792   1.044       .  S
C785        C786   1.395       .  A
C786        H790   1.082       .  S
C793        N799   1.345       .  A
C793        C798   1.384       .  A
C793        C794   1.406       .  A
C794        C795   1.405       .  A
C794        H805   1.082       .  S
C795        C804   1.381       .  A
C795        C796   1.384       .  A
C796        N802   1.345       .  A
C796        C797   1.405       .  A
C797        C798   1.404       .  A
C797        H806   1.082       .  S
C798        C801   1.381       .  A
N799        C800   1.357       .  A
N799        H809   1.045       .  S
C800        C801   1.397       .  A
C801        H807   1.082       .  S
N802        C803   1.356       .  A
N802        H810   1.045       .  S
C803        C804   1.397       .  A
C804        H808   1.082       .  S
C811        N817   1.346       .  A
C811        C816   1.385       .  A
C811        C812   1.403       .  A
C812        C813   1.404       .  A
C812        H823   1.082       .  S
C813        C822   1.377       .  A
C813        C814   1.385       .  A
C814        N820   1.346       .  A
C814        C815   1.403       .  A
C815        C816   1.404       .  A
C815        H824   1.082       .  S
C816        C819   1.376       .  A
N817        C818   1.355       .  A
N817        H827   1.045       .  S
C818        C819   1.395       .  A
C819        H825   1.082       .  S
N820        C821   1.355       .  A
N820        H828   1.044       .  S
C821        C822   1.394       .  A
C822        H826   1.082       .  S
C829        N835   1.346       .  A
C829        C834   1.384       .  A
C829        C830   1.405       .  A
C830        C831   1.405       .  A
C830        H841   1.082       .  S
C831        C840   1.380       .  A
C831        C832   1.384       .  A
C832        N838   1.347       .  A
C832        C833   1.406       .  A
C833        C834   1.406       .  A
C833        H842   1.082       .  S
C834        C837   1.381       .  A
N835        C836   1.357       .  A
N835        H845   1.043       .  S
C836        C837   1.398       .  A
C837        H843   1.082       .  S
N838        C839   1.358       .  A
N838        H846   1.044       .  S
C839        C840   1.397       .  A
C840        H844   1.082       .  S
C847        N853   1.342   1_556  A
C847        C852   1.384   1_556  A
C847        C848   1.404       .  A
C848        C849   1.402       .  A
C848        H859   1.082       .  S
C849        C858   1.380       .  A
C849        C850   1.384       .  A
C850        N856   1.343       .  A
C850        C851   1.405       .  A
C851        C852   1.404   1_556  A
C851        H860   1.082   1_556  S
C852        C855   1.382       .  A
N853        C854   1.357       .  A
N853        H863   1.045       .  S
C854        C855   1.396       .  A
C855        H861   1.082       .  S
N856        C857   1.357       .  A
N856        H864   1.045       .  S
C857        C858   1.396       .  A
C858        H862   1.082       .  S
