geometry optimzed in LAMMPS
_audit_creation_date              2020-11-30 
_audit_creation_method            'lammps2cif' 
_symmetry_space_group_name_H-M    'P1' 
_symmetry_Int_Tables_number       1 
_symmetry_cell_setting            triclinic 
loop_ 
_symmetry_equiv_pos_as_xyz 
  x,y,z 
_cell_length_a                    53.7100583 
_cell_length_b                    31.385623614701117 
_cell_length_c                    53.74387625058466 
_cell_angle_alpha                 89.9778929401955 
_cell_angle_beta                  90.00011176881802 
_cell_angle_gamma                 90.04727738539177 
loop_ 
_atom_site_label 
_atom_site_type_symbol 
_atom_site_fract_x 
_atom_site_fract_y 
_atom_site_fract_z 
_atom_site_charge 
N1          N  0.78375697  0.68083503  0.13578325    -0.26700
N2          N  0.77399263  0.69427914  0.15699843    -0.34500
C3          C  0.78172349  0.66842001  0.17551284     0.01700
C4          C  0.79742372  0.63791539  0.16550945     0.07700
C5          C  0.79842495  0.64692947  0.14035778    -0.05400
H6          H  0.77687975  0.67230564  0.19491947     0.08300
H7          H  0.80876286  0.62967738  0.12632488     0.09500
Cu8        Cu  0.75156728  0.74874619  0.15988244     0.44200
Cu9        Cu  0.77524388  0.70680545  0.10113188     0.42000
Cu10       Cu  0.72719324  0.78821924  0.10157250     0.43900
N11         N  0.72849668  0.80247587  0.15729126    -0.34100
N12         N  0.71833499  0.81510700  0.13609930    -0.28300
C13         C  0.70337005  0.84872039  0.14062939    -0.04400
C14         C  0.70457036  0.85842593  0.16574141     0.07800
C15         C  0.72079627  0.82859696  0.17570888     0.01600
H16         H  0.69295964  0.86571495  0.12653573     0.09200
H17         H  0.72624144  0.82564005  0.19501337     0.08300
N18         N  0.74175636  0.76124744  0.06906668    -0.35500
N19         N  0.75961648  0.73227942  0.06890957    -0.27700
C20         C  0.76508634  0.72223563  0.04516052    -0.02900
C21         C  0.74999391  0.74601307  0.02941485     0.05700
C22         C  0.73544190  0.77034129  0.04539481     0.03800
H23         H  0.77933403  0.69968684  0.03982644     0.08900
H24         H  0.72107223  0.79280907  0.04027936     0.07700
N25         N  0.78464264  0.68220510  0.81495161    -0.26700
N26         N  0.77458636  0.69484869  0.79372192    -0.34500
C27         C  0.78302701  0.66976580  0.77521388     0.01700
C28         C  0.79957631  0.64071816  0.78525529     0.07700
C29         C  0.80025497  0.64958484  0.81041936    -0.05400
H30         H  0.77795121  0.67308208  0.75582773     0.08300
H31         H  0.81084354  0.63287672  0.82449755     0.09500
Cu32       Cu  0.75090444  0.74723879  0.79093853     0.44200
Cu33       Cu  0.77504277  0.70746491  0.84939518     0.42000
Cu34       Cu  0.72466570  0.78459625  0.84902467     0.43900
N35         N  0.72747868  0.79998771  0.79359518    -0.34100
N36         N  0.71660433  0.81175923  0.81458492    -0.28300
C37         C  0.70157782  0.84516160  0.80995907    -0.04400
C38         C  0.70350576  0.85549764  0.78501168     0.07800
C39         C  0.72018122  0.82639971  0.77521093     0.01600
H40         H  0.69054451  0.86142360  0.82386703     0.09200
H41         H  0.72610565  0.82395308  0.75602273     0.08300
N42         N  0.74027105  0.75963144  0.88139743    -0.35500
N43         N  0.75897047  0.73226540  0.88148494    -0.27700
C44         C  0.76510198  0.72327685  0.90519099    -0.02900
C45         C  0.74957043  0.74608462  0.92093913     0.05700
C46         C  0.73408476  0.76882515  0.90507671     0.03800
H47         H  0.78003498  0.70204040  0.91050137     0.08900
H48         H  0.71919481  0.79020791  0.91029624     0.07700
N49         N  0.79324297  0.31205479  0.31981180    -0.26700
N50         N  0.78215573  0.30109217  0.29879138    -0.34500
C51         C  0.78865674  0.32894655  0.28088276     0.01700
C52         C  0.80495195  0.35830854  0.29102009     0.07700
C53         C  0.80757917  0.34656414  0.31568596    -0.05400
H54         H  0.78223726  0.32759406  0.26181555     0.08300
H55         H  0.81848708  0.36266692  0.32976844     0.09500
Cu56       Cu  0.75889609  0.24839136  0.29542183     0.44200
Cu57       Cu  0.78632839  0.28181103  0.35348962     0.42000
Cu58       Cu  0.73745540  0.20094343  0.35295173     0.43900
N59         N  0.73478183  0.19653561  0.29685115    -0.34100
N60         N  0.72563752  0.18097765  0.31783765    -0.28300
C61         C  0.70961546  0.14926127  0.31237457    -0.04400
C62         C  0.70911713  0.14406564  0.28681060     0.07800
C63         C  0.72537266  0.17435553  0.27756002     0.01600
H64         H  0.69972871  0.13039175  0.32603713     0.09200
H65         H  0.72979462  0.18022040  0.25821939     0.08300
N66         N  0.75509028  0.22262136  0.38516333    -0.35500
N67         N  0.77299246  0.25158087  0.38518883    -0.27700
C68         C  0.77981979  0.25954398  0.40880472    -0.02900
C69         C  0.76555695  0.23450011  0.42457121     0.05700
C70         C  0.75016840  0.21131491  0.40883978     0.03800
H71         H  0.79397901  0.28236096  0.41404279     0.08900
H72         H  0.73576439  0.18902760  0.41420872     0.07700
N73         N  0.72449203  0.17827070  0.63836848    -0.26700
N74         N  0.72889015  0.19917270  0.65928695    -0.34500
C75         C  0.71769626  0.17866424  0.67822601     0.01700
C76         C  0.70586038  0.14316471  0.66872453     0.07700
C77         C  0.71053433  0.14373174  0.64346987    -0.05400
H78         H  0.71855689  0.18840101  0.69751829     0.08300
H79         H  0.70436332  0.12068139  0.62982428     0.09500
Cu80       Cu  0.75132789  0.25287660  0.66138892     0.44200
Cu81       Cu  0.73790491  0.19739110  0.60391210     0.42000
Cu82       Cu  0.78369492  0.28168731  0.60453315     0.43900
N83         N  0.77767329  0.30107482  0.65916692    -0.34100
N84         N  0.79051396  0.30976414  0.63877912    -0.28300
C85         C  0.80684324  0.34112532  0.64373813    -0.04400
C86         C  0.80378139  0.35318360  0.66825094     0.07800
C87         C  0.78511334  0.32734877  0.67749578     0.01600
H88         H  0.81934889  0.35517910  0.63023920     0.09200
H89         H  0.77763666  0.32736822  0.69619176     0.08300
N90         N  0.77057940  0.25350534  0.57218019    -0.35500
N91         N  0.75362201  0.22300012  0.57195468    -0.27700
C92         C  0.74866671  0.21233660  0.54823628    -0.02900
C93         C  0.76325572  0.23724628  0.53265203     0.05700
C94         C  0.77689341  0.26302801  0.54860646     0.03800
H95         H  0.73509445  0.18862018  0.54282521     0.08900
H96         H  0.79065297  0.28667872  0.54357004     0.07700
N97         N  0.34039064  0.09383061  0.76518970    -0.26700
N98         N  0.31920519  0.07685637  0.75742603    -0.34500
C99         C  0.30008980  0.09911892  0.76720710     0.01700
C100        C  0.30976894  0.13096361  0.78219433     0.07700
C101        C  0.33531882  0.12653325  0.78055435    -0.05400
H102        H  0.28061549  0.09228964  0.76391464     0.08300
H103        H  0.34924180  0.14638433  0.78937164     0.09500
Cu104      Cu  0.31761276  0.02359947  0.73418406     0.44200
Cu105      Cu  0.37541796  0.07360297  0.75354599     0.42000
Cu106      Cu  0.37634199  0.99336212  0.70542620     0.43900
N107        N  0.32153209  0.97291331  0.70931938    -0.34100
N108        N  0.34251627  0.96410231  0.69748655    -0.28300
C109        C  0.33864045  0.93101502  0.68200530    -0.04400
C110        C  0.31423319  0.91774406  0.68462926     0.07800
C111        C  0.30395511  0.94482934  0.70216106     0.01600
H112        H  0.35283278  0.91653963  0.67049331     0.09200
H113        H  0.28502446  0.94440254  0.70903590     0.08300
N114        N  0.40838698  0.01872922  0.72134295    -0.35500
N115        N  0.40808725  0.04801753  0.73900487    -0.27700
C116        C  0.43163998  0.05593772  0.74625168    -0.02900
C117        C  0.44761370  0.03013185  0.73266387     0.05700
C118        C  0.43210420  0.00703699  0.71702830     0.03800
H119        H  0.43665315  0.07784828  0.76095891     0.08900
H120        H  0.43758740  0.98323308  0.70355274     0.07700
N121        N  0.66202472  0.07695783  0.70267088    -0.26700
N122        N  0.68199164  0.05227830  0.70320626    -0.34500
C123        C  0.70065256  0.07201230  0.69105908     0.01700
C124        C  0.69196542  0.11085493  0.68266395     0.07700
C125        C  0.66749539  0.11309351  0.69034427    -0.05400
H126        H  0.71922949  0.05928199  0.68880847     0.08300
H127        H  0.65455638  0.13890949  0.68708580     0.09500
Cu128      Cu  0.68340934  0.99403140  0.72171407     0.44200
Cu129      Cu  0.62791026  0.06018829  0.71791223     0.42000
Cu130      Cu  0.62640742  0.96422219  0.75416834     0.43900
N131        N  0.68091560  0.94294104  0.74633775    -0.34100
N132        N  0.66063766  0.93410045  0.75936115    -0.28300
C133        C  0.66572964  0.90211964  0.77526371    -0.04400
C134        C  0.69015221  0.88960994  0.77171815     0.07800
C135        C  0.69921788  0.91600428  0.75317491     0.01600
H136        H  0.65245446  0.88836882  0.78811715     0.09200
H137        H  0.71793461  0.91644061  0.74572389     0.08300
N138        N  0.59441020  0.99796539  0.74437678    -0.35500
N139        N  0.59519888  0.03390088  0.73157290    -0.27700
C140        C  0.57184718  0.04799058  0.72788103    -0.02900
C141        C  0.55541199  0.01944153  0.73869375     0.05700
C142        C  0.57041669  0.98799181  0.74892979     0.03800
H143        H  0.56714999  0.07624542  0.71733984     0.08900
H144        H  0.56435774  0.95992358  0.75894203     0.07700
N145        N  0.16409249  0.45815676  0.19908469    -0.26700
N146        N  0.18515627  0.47351734  0.20815669    -0.34500
C147        C  0.20422093  0.44962655  0.19978731     0.01700
C148        C  0.19463856  0.41831883  0.18442891     0.07700
C149        C  0.16921037  0.42474407  0.18426726    -0.05400
H150        H  0.22361093  0.45502190  0.20426633     0.08300
H151        H  0.15538690  0.40588033  0.17460006     0.09500
Cu152      Cu  0.18665610  0.52682188  0.23113249     0.44200
Cu153      Cu  0.12929629  0.48112309  0.20907712     0.42000
Cu154      Cu  0.12839380  0.55823863  0.25972995     0.43900
N155        N  0.18316225  0.57829787  0.25527760    -0.34100
N156        N  0.16229475  0.58784541  0.26710632    -0.28300
C157        C  0.16662846  0.62078809  0.28257513    -0.04400
C158        C  0.19121727  0.63308348  0.27990139     0.07800
C159        C  0.20111747  0.60567685  0.26237754     0.01600
H160        H  0.15275071  0.63539919  0.29441034     0.09200
H161        H  0.22013604  0.60495589  0.25576179     0.08300
N162        N  0.09657632  0.53117544  0.24422072    -0.35500
N163        N  0.09695715  0.50448780  0.22517911    -0.27700
C164        C  0.07341981  0.49495612  0.21868524    -0.02900
C165        C  0.05739335  0.51645150  0.23445077     0.05700
C166        C  0.07274015  0.53902058  0.25044729     0.03800
H167        H  0.06837270  0.47350459  0.20375505     0.08900
H168        H  0.06701105  0.56042964  0.26514418     0.07700
N169        N  0.84474266  0.44121531  0.26520912    -0.26700
N170        N  0.82406606  0.44806332  0.25244146    -0.34500
C171        C  0.80671731  0.41966015  0.25969509     0.01700
C172        C  0.81682275  0.39445916  0.27824474     0.07700
C173        C  0.84088294  0.40912493  0.28138580    -0.05400
H174        H  0.78807353  0.41770674  0.25215577     0.08300
H175        H  0.85490886  0.39616108  0.29369766     0.09500
Cu176      Cu  0.82022573  0.49677316  0.22632183     0.44200
Cu177      Cu  0.87821823  0.47157374  0.25758562     0.42000
Cu178      Cu  0.87750593  0.54617591  0.20593105     0.43900
N179        N  0.82134724  0.54963622  0.20278958    -0.34100
N180        N  0.84237173  0.56648417  0.19451993    -0.28300
C181        C  0.83698345  0.59974702  0.17962929    -0.04400
C182        C  0.81141008  0.60460509  0.17886742     0.07800
C183        C  0.80205073  0.57243433  0.19382269     0.01600
H184        H  0.85071110  0.61987529  0.17071752     0.09200
H185        H  0.78266742  0.56599253  0.19783204     0.08300
N186        N  0.90996140  0.52422155  0.22287735    -0.35500
N187        N  0.91011447  0.49789121  0.24208742    -0.27700
C188        C  0.93382679  0.49016556  0.24875214    -0.02900
C189        C  0.94947989  0.51267565  0.23300629     0.05700
C190        C  0.93362328  0.53388908  0.21682611     0.03800
H191        H  0.93923138  0.46889174  0.26364518     0.08900
H192        H  0.93884274  0.55529313  0.20192664     0.07700
N193        N  0.21947202  0.70947179  0.64490497    -0.26700
N194        N  0.22827484  0.72470439  0.66610274    -0.34500
C195        C  0.21931945  0.70109869  0.68504297     0.01700
C196        C  0.20379890  0.67022025  0.67521915     0.07700
C197        C  0.20418022  0.67661557  0.64980799    -0.05400
H198        H  0.22378538  0.70603787  0.70446198     0.08300
H199        H  0.19495239  0.65750321  0.63580781     0.09500
Cu200      Cu  0.25228739  0.77654845  0.66795828     0.44200
Cu201      Cu  0.23105135  0.72988092  0.61005379     0.42000
Cu202      Cu  0.28177190  0.80581462  0.60956763     0.43900
N203        N  0.27744024  0.82651862  0.66435954    -0.34100
N204        N  0.28950474  0.83540182  0.64352005    -0.28300
C205        C  0.30497917  0.86846803  0.64770175    -0.04400
C206        C  0.30202673  0.88155134  0.67212456     0.07800
C207        C  0.28438914  0.85437275  0.68209333     0.01600
H208        H  0.31668708  0.88310368  0.63370975     0.09200
H209        H  0.27721697  0.85465836  0.70090698     0.08300
N210        N  0.26657685  0.77885312  0.57741916    -0.35500
N211        N  0.24792910  0.75133668  0.57763155    -0.27700
C212        C  0.24159409  0.74184655  0.55402801    -0.02900
C213        C  0.25679820  0.76481656  0.53803727     0.05700
C214        C  0.27245342  0.78780917  0.55362966     0.03800
H215        H  0.22636121  0.72103369  0.54894027     0.08900
H216        H  0.28689421  0.80992324  0.54812931     0.07700
N217        N  0.28582849  0.84064834  0.32321800    -0.26700
N218        N  0.27591659  0.82704673  0.30210930    -0.34500
C219        C  0.28358802  0.85241140  0.28337569     0.01700
C220        C  0.29945885  0.88287064  0.29306547     0.07700
C221        C  0.30062926  0.87431045  0.31830120    -0.05400
H222        H  0.27831197  0.84852663  0.26407941     0.08300
H223        H  0.31089822  0.89206808  0.33218187     0.09500
Cu224      Cu  0.25280876  0.77396905  0.29957141     0.44200
Cu225      Cu  0.27678037  0.81540070  0.35810526     0.42000
Cu226      Cu  0.22908015  0.73312095  0.35775374     0.43900
N227        N  0.22899413  0.72181458  0.30201233    -0.34100
N228        N  0.21913600  0.70851665  0.32319580    -0.28300
C229        C  0.20368423  0.67568657  0.31847625    -0.04400
C230        C  0.20427524  0.66741421  0.29321745     0.07800
C231        C  0.22060026  0.69703847  0.28334951     0.01600
H232        H  0.19350021  0.65812337  0.33251141     0.09200
H233        H  0.22579814  0.70060733  0.26400876     0.08300
N234        N  0.24414167  0.75886587  0.39012311    -0.35500
N235        N  0.26161340  0.78857136  0.39038685    -0.27700
C236        C  0.26737371  0.79759761  0.41422238    -0.02900
C237        C  0.25294340  0.77223115  0.42980020     0.05700
C238        C  0.23844022  0.74814836  0.41370182     0.03800
H239        H  0.28145585  0.82035452  0.41974479     0.08900
H240        H  0.22455109  0.72468154  0.41867371     0.07700
N241        N  0.16260428  0.58738059  0.69817817    -0.26700
N242        N  0.18194527  0.58144964  0.71299737    -0.34500
C243        C  0.19937517  0.61101735  0.70774081     0.01700
C244        C  0.19059789  0.63611090  0.68846536     0.07700
C245        C  0.16735554  0.62010399  0.68277494    -0.05400
H246        H  0.21745226  0.61295334  0.71654884     0.08300
H247        H  0.15472531  0.63157069  0.66858627     0.09500
Cu248      Cu  0.18421499  0.53058398  0.73776936     0.44200
Cu249      Cu  0.13003012  0.55260017  0.70043571     0.42000
Cu250      Cu  0.12976547  0.46068713  0.74046231     0.43900
N251        N  0.18322356  0.47282744  0.75682881    -0.34100
N252        N  0.16398355  0.44641733  0.75665672    -0.28300
C253        C  0.17013862  0.41076147  0.76917133    -0.04400
C254        C  0.19418072  0.41532623  0.77792842     0.07800
C255        C  0.20189555  0.45500575  0.76989275     0.01600
H256        H  0.15785509  0.38387094  0.77207766     0.09200
H257        H  0.21996481  0.46945174  0.77280629     0.08300
N258        N  0.09770079  0.48633537  0.72468466    -0.35500
N259        N  0.09795224  0.52032206  0.71016052    -0.27700
C260        C  0.07441636  0.53156843  0.70477375    -0.02900
C261        C  0.05849435  0.50314264  0.71633500     0.05700
C262        C  0.07390499  0.47476451  0.72871496     0.03800
H263        H  0.06930827  0.55895407  0.69365805     0.08900
H264        H  0.06821493  0.44882937  0.74071302     0.07700
N265        N  0.84450126  0.56790898  0.75760669    -0.26700
N266        N  0.82345140  0.55193603  0.74882689    -0.34500
C267        C  0.80427432  0.57574424  0.75698703     0.01700
C268        C  0.81367351  0.60759024  0.77204383     0.07700
C269        C  0.83917501  0.60159415  0.77217301    -0.05400
H270        H  0.78490272  0.56977469  0.75267622     0.08300
H271        H  0.85290166  0.62100626  0.78160281     0.09500
Cu272      Cu  0.82162176  0.49747239  0.72699378     0.44200
Cu273      Cu  0.87963017  0.54557559  0.74748163     0.42000
Cu274      Cu  0.87929626  0.46330533  0.69984809     0.43900
N275        N  0.82478534  0.44405128  0.70449078    -0.34100
N276        N  0.84572030  0.43323838  0.69322356    -0.28300
C277        C  0.84148880  0.39923444  0.67861343    -0.04400
C278        C  0.81682456  0.38764762  0.68125173     0.07800
C279        C  0.80677163  0.41650070  0.69785972     0.01600
H280        H  0.85542650  0.38370613  0.66725802     0.09200
H281        H  0.78762757  0.41819139  0.70404239     0.08300
N282        N  0.91127050  0.49171340  0.71335056    -0.35500
N283        N  0.91171386  0.52126645  0.73087206    -0.27700
C284        C  0.93559946  0.53166098  0.73559085    -0.02900
C285        C  0.95084696  0.50715771  0.72043952     0.05700
C286        C  0.93469530  0.48232795  0.70660579     0.03800
H287        H  0.94141784  0.55466691  0.74940763     0.08900
H288        H  0.93954435  0.45907821  0.69256393     0.07700
N289        N  0.22457793  0.34656538  0.14064884    -0.26700
N290        N  0.23176920  0.32933484  0.16192593    -0.34500
C291        C  0.22246690  0.35251634  0.18085199     0.01700
C292        C  0.20845127  0.38530533  0.17090780     0.07700
C293        C  0.21005430  0.38049679  0.14542664    -0.05400
H294        H  0.22543321  0.34570064  0.20036268     0.08300
H295        H  0.20183340  0.40081382  0.13138752     0.09500
Cu296      Cu  0.25371270  0.27475705  0.16386820     0.44200
Cu297      Cu  0.23676030  0.32543125  0.10622973     0.42000
Cu298      Cu  0.28452158  0.24315200  0.10675136     0.43900
N299        N  0.27761252  0.22274771  0.16117828    -0.34100
N300        N  0.29020455  0.21312332  0.14078300    -0.28300
C301        C  0.30534332  0.17996465  0.14563918    -0.04400
C302        C  0.30165277  0.16754893  0.17006014     0.07800
C303        C  0.28388400  0.19517061  0.17932683     0.01600
H304        H  0.31766668  0.16531279  0.13221098     0.09200
H305        H  0.27654594  0.19590703  0.19806930     0.08300
N306        N  0.27182452  0.27319078  0.07467510    -0.35500
N307        N  0.25428583  0.30271034  0.07456055    -0.27700
C308        C  0.25007733  0.31509850  0.05099663    -0.02900
C309        C  0.26561451  0.29219455  0.03536173     0.05700
C310        C  0.27914004  0.26590349  0.05111538     0.03800
H311        H  0.23687642  0.33951653  0.04576689     0.08900
H312        H  0.29295651  0.24251157  0.04588628     0.07700
N313        N  0.28683258  0.21160284  0.82514331    -0.26700
N314        N  0.27071832  0.21625227  0.80673240    -0.34500
C315        C  0.27567845  0.18701619  0.78903309     0.01700
C316        C  0.29614604  0.16346852  0.79653737     0.07700
C317        C  0.30276941  0.18003677  0.81943430    -0.05400
H318        H  0.26603812  0.18471533  0.77140785     0.08300
H319        H  0.31819367  0.17011399  0.83101843     0.09500
Cu320      Cu  0.24547363  0.26669961  0.80519187     0.44200
Cu321      Cu  0.28629068  0.24830947  0.85727704     0.42000
Cu322      Cu  0.24888515  0.34353875  0.85608973     0.43900
N323        N  0.22817191  0.32622042  0.80485590    -0.34100
N324        N  0.23104674  0.35520365  0.82251997    -0.28300
C325        C  0.21956773  0.39139705  0.81554591    -0.04400
C326        C  0.20854638  0.38456712  0.79267737     0.07800
C327        C  0.21425422  0.34297891  0.78645326     0.01600
H328        H  0.21887993  0.42024542  0.82654087     0.09200
H329        H  0.20931695  0.32653800  0.76945966     0.08300
N330        N  0.26416098  0.31858711  0.88841856    -0.35500
N331        N  0.27827773  0.28411450  0.88873092    -0.27700
C332        C  0.28353092  0.27397779  0.91246871    -0.02900
C333        C  0.27194903  0.30317171  0.92789954     0.05700
C334        C  0.25984679  0.33104705  0.91198348     0.03800
H335        H  0.29369441  0.24583370  0.91811249     0.08900
H336        H  0.24808437  0.35758638  0.91713733     0.07700
N337        N  0.34225333  0.95879357  0.26474614    -0.26700
N338        N  0.32093138  0.97252395  0.25537298    -0.34500
C339        C  0.30237205  0.94730854  0.26373198     0.01700
C340        C  0.31252189  0.91697565  0.27947263     0.07700
C341        C  0.33777067  0.92531205  0.27975309    -0.05400
H342        H  0.28291762  0.95118897  0.25903966     0.08300
H343        H  0.35196077  0.90756616  0.28959074     0.09500
Cu344      Cu  0.31843242  0.02578329  0.23212929     0.44200
Cu345      Cu  0.37688579  0.98331543  0.25500325     0.42000
Cu346      Cu  0.37761183  0.06190312  0.20616263     0.43900
N347        N  0.32206395  0.07792516  0.20819448    -0.34100
N348        N  0.34336420  0.08925565  0.19769115    -0.28300
C349        C  0.33923683  0.12227988  0.18224520    -0.04400
C350        C  0.31429893  0.13283605  0.18345462     0.07800
C351        C  0.30396580  0.10429716  0.20016818     0.01600
H352        H  0.35349752  0.13823024  0.17147522     0.09200
H353        H  0.28463709  0.10235202  0.20573628     0.08300
N354        N  0.40970840  0.03374502  0.22029385    -0.35500
N355        N  0.40947407  0.00603741  0.23882624    -0.27700
C356        C  0.43304487  0.99457299  0.24409722    -0.02900
C357        C  0.44891972  0.01580971  0.22797337     0.05700
C358        C  0.43342834  0.04035340  0.21314171     0.03800
H359        H  0.43819819  0.97179421  0.25830459     0.08900
H360        H  0.43901308  0.06196066  0.19847199     0.07700
N361        N  0.66236882  0.93832418  0.19192352    -0.26700
N362        N  0.68363441  0.95023554  0.20225398    -0.34500
C363        C  0.70177055  0.92322895  0.19495952     0.01700
C364        C  0.69157395  0.89347340  0.17884936     0.07700
C365        C  0.66659858  0.90420077  0.17725936    -0.05400
H366        H  0.72108792  0.92567578  0.20049695     0.08300
H367        H  0.65241527  0.88775736  0.16665165     0.07100
Cu368      Cu  0.68686746  0.00417676  0.22498370     0.44200
Cu369      Cu  0.62820177  0.96733117  0.20002549     0.42000
Cu370      Cu  0.62907980  0.05020723  0.24763294     0.43900
N371        N  0.68514318  0.05800547  0.24793488    -0.34100
N372        N  0.66414801  0.07311466  0.25733331    -0.28300
C373        C  0.66946279  0.10580456  0.27269672    -0.04400
C374        C  0.69493411  0.11215040  0.27255798     0.07800
C375        C  0.70429547  0.08152224  0.25658014     0.01600
H376        H  0.65575222  0.12408685  0.28286539     0.09200
H377        H  0.72366340  0.07599481  0.25210664     0.08300
N378        N  0.59657386  0.02509014  0.23242058    -0.35500
N379        N  0.59616849  0.99602496  0.21459080    -0.27700
C380        C  0.57226805  0.98711275  0.20892577    -0.02900
C381        C  0.55688067  0.01138671  0.22404982     0.05700
C382        C  0.57301509  0.03509261  0.23866246     0.03800
H383        H  0.56651936  0.96368781  0.19532431     0.08900
H384        H  0.56801139  0.05813793  0.25276593     0.07700
C385        C  0.51502902  0.00960568  0.20300412     0.24200
C386        C  0.52921139  0.01124617  0.22501162    -0.23900
C387        C  0.51670864  0.01312314  0.24801666     0.19100
C388        C  0.49063433  0.01363671  0.24898831     0.24100
C389        C  0.47649517  0.01329151  0.22696417    -0.23800
C390        C  0.48894551  0.01108594  0.20396577     0.19000
F391        F  0.47583093  0.00954567  0.18238694    -0.13800
F392        F  0.52640788  0.00784233  0.18047631    -0.16200
F393        F  0.47923544  0.01575778  0.27150165    -0.16200
F394        F  0.52971931  0.01364795  0.26966887    -0.13800
C395        C  0.29003026  0.28796375  0.99549396     0.24200
C396        C  0.26727832  0.29521446  0.00782275    -0.23900
C397        C  0.24611461  0.30553615  0.99354609     0.19100
C398        C  0.24771280  0.30875314  0.96762809     0.24100
C399        C  0.27043930  0.30143210  0.95538346    -0.23800
C400        C  0.29155379  0.29094925  0.96955349     0.19000
F401        F  0.31389154  0.28465507  0.95832120    -0.13800
F402        F  0.31105003  0.27913498  0.00851973    -0.16200
F403        F  0.22672727  0.31724886  0.95445166    -0.16200
F404        F  0.22356721  0.31094882  0.00450037    -0.13800
C405        C  0.99113449  0.46767715  0.71586958     0.24200
C406        C  0.97842220  0.50641450  0.71947856    -0.23900
C407        C  0.99229117  0.54426253  0.72175021     0.19100
C408        C  0.01832215  0.54339660  0.72019804     0.24100
C409        C  0.03097381  0.50453442  0.71695420    -0.23800
C410        C  0.01713455  0.46675118  0.71478384     0.19000
F411        F  0.02878222  0.42890867  0.71106314    -0.13800
F412        F  0.97845711  0.43037938  0.71403065    -0.16200
F413        F  0.03116039  0.58046610  0.72251314    -0.16200
F414        F  0.98066417  0.58226564  0.72492462    -0.13800
C415        C  0.24934627  0.73023210  0.49635491     0.24200
C416        C  0.25547056  0.76665749  0.51037230    -0.23900
C417        C  0.26013070  0.80510269  0.49769402     0.19100
C418        C  0.25900804  0.80701434  0.47166332     0.24100
C419        C  0.25340464  0.77041964  0.45755730    -0.23800
C420        C  0.24844345  0.73202444  0.47028437     0.19000
F421        F  0.24356565  0.69563611  0.45754458    -0.13800
F422        F  0.24503607  0.69235857  0.50779072    -0.16200
F423        F  0.26265413  0.84519216  0.46037039    -0.16200
F424        F  0.26495555  0.84143339  0.51051386    -0.13800
C425        C  0.99021546  0.51195576  0.25606756     0.24200
C426        C  0.97713567  0.51365729  0.23336620    -0.23900
C427        C  0.99075616  0.51631391  0.21102738     0.19100
C428        C  0.01682142  0.51710298  0.21138972     0.24100
C429        C  0.02982373  0.51569125  0.23408636    -0.23800
C430        C  0.01627405  0.51328162  0.25641546     0.19000
F431        F  0.02827513  0.51115495  0.27861513    -0.13800
F432        F  0.97781820  0.50998329  0.27804541    -0.16200
F433        F  0.02933323  0.52027148  0.18951380    -0.16200
F434        F  0.97890934  0.51707041  0.18872256    -0.13800
C435        C  0.51557279  0.06082584  0.74153830     0.24200
C436        C  0.52779104  0.02160815  0.73821347    -0.23900
C437        C  0.51342427  0.98495048  0.73362419     0.19100
C438        C  0.48742647  0.98767043  0.73176907     0.24100
C439        C  0.47518210  0.02702143  0.73489359    -0.23800
C440        C  0.48957630  0.06346633  0.74008536     0.19000
F441        F  0.47859701  0.10207849  0.74300132    -0.13800
F442        F  0.52880150  0.09668235  0.74656334    -0.16200
F443        F  0.47425102  0.95154510  0.72731729    -0.16200
F444        F  0.52457673  0.94662397  0.73009836    -0.13800
C445        C  0.77005275  0.27295631  0.46536112     0.24200
C446        C  0.76542169  0.23493582  0.45223634    -0.23900
C447        C  0.76022789  0.19762285  0.46581396     0.19100
C448        C  0.75953473  0.19836059  0.49186304     0.24100
C449        C  0.76408401  0.23642993  0.50499164    -0.23800
C450        C  0.76940138  0.27369954  0.49138855     0.19000
F451        F  0.77306687  0.31144796  0.50315180    -0.13800
F452        F  0.77424736  0.31003626  0.45304777    -0.16200
F453        F  0.75511223  0.16136688  0.50418490    -0.16200
F454        F  0.75649843  0.15998791  0.45394474    -0.13800
C455        C  0.75600043  0.70892287  0.98811893     0.24200
C456        C  0.74973268  0.74592188  0.00160682    -0.23900
C457        C  0.74333026  0.78294606  0.98819259     0.19100
C458        C  0.74321804  0.78298114  0.96210097     0.24100
C459        C  0.74955006  0.74603626  0.94867067    -0.23800
C460        C  0.75592970  0.70901185  0.96202778     0.19000
F461        F  0.76134792  0.67225426  0.94988403    -0.13800
F462        F  0.76147645  0.67202285  0.00008562    -0.16200
F463        F  0.73774555  0.81980611  0.95003748    -0.16200
F464        F  0.73799423  0.81981237  0.00023621    -0.13800
loop_ 
_geom_bond_atom_site_label_1 
_geom_bond_atom_site_label_2 
_geom_bond_distance 
_geom_bond_site_symmetry_2 
_ccdc_geom_bond_type 
N1            N2   1.324       .  A
N1            C5   1.347       .  A
N1           Cu9   2.084       .  S
N2            C3   1.349       .  A
N2           Cu8   2.098       .  S
C3            C4   1.385       .  A
C3            H6   1.082       .  S
C4            C5   1.382       .  A
C4          C182   1.474       .  S
C5            H7   1.082       .  S
Cu8          N11   2.098       .  S
Cu9          N19   2.084       .  S
Cu10         N12   2.094       .  S
Cu10         N18   2.093       .  S
N11          N12   1.324       .  A
N11          C15   1.351       .  A
N12          C13   1.349       .  A
C13          C14   1.385       .  A
C13          H16   1.082       .  S
C14          C15   1.387       .  A
C14         C364   1.482       .  S
C15          H17   1.082       .  S
N18          N19   1.322       .  A
N18          C22   1.347       .  A
N19          C20   1.347       .  A
C20          C21   1.389       .  A
C20          H23   1.082       .  S
C21          C22   1.390       .  A
C21         C456   1.495       .  S
C22          H24   1.081       .  S
N25          N26   1.323       .  A
N25          C29   1.346       .  A
N25         Cu33   2.079       .  S
N26          C27   1.348       .  A
N26         Cu32   2.085       .  S
C27          C28   1.383       .  A
C27          H30   1.082       .  S
C28          C29   1.381       .  A
C28         C268   1.470       .  S
C29          H31   1.082       .  S
Cu32         N35   2.085       .  S
Cu33         N43   2.080       .  S
Cu34         N36   2.083       .  S
Cu34         N42   2.084       .  S
N35          N36   1.323       .  A
N35          C39   1.348       .  A
N36          C37   1.347       .  A
C37          C38   1.383       .  A
C37          H40   1.082       .  S
C38          C39   1.384       .  A
C38         C134   1.474       .  S
C39          H41   1.082       .  S
N42          N43   1.322       .  A
N42          C46   1.347       .  A
N43          C44   1.346       .  A
C44          C45   1.388       .  A
C44          H47   1.082       .  S
C45          C46   1.389       .  A
C45         C459   1.490       .  S
C46          H48   1.082       .  S
N49          N50   1.323       .  A
N49          C53   1.347       .  A
N49         Cu57   2.077       .  S
N50          C51   1.346       .  A
N50         Cu56   2.080       .  S
C51          C52   1.382       .  A
C51          H54   1.082       .  S
C52          C53   1.383       .  A
C52         C172   1.471       .  S
C53          H55   1.082       .  S
Cu56         N59   2.081       .  S
Cu57         N67   2.077       .  S
Cu58         N60   2.087       .  S
Cu58         N66   2.087       .  S
N59          N60   1.323       .  A
N59          C63   1.347       .  A
N60          C61   1.348       .  A
C61          C62   1.384       .  A
C61          H64   1.082       .  S
C62          C63   1.383       .  A
C62         C374   1.473       .  S
C63          H65   1.082       .  S
N66          N67   1.323       .  A
N66          C70   1.347       .  A
N67          C68   1.345       .  A
C68          C69   1.386       .  A
C68          H71   1.082       .  S
C69          C70   1.388       .  A
C69         C446   1.487       .  S
C70          H72   1.082       .  S
N73          N74   1.323       .  A
N73          C77   1.346       .  A
N73         Cu81   2.075       .  S
N74          C75   1.346       .  A
N74         Cu80   2.074       .  S
C75          C76   1.380       .  A
C75          H78   1.082       .  S
C76          C77   1.380       .  A
C76         C124   1.464       .  S
C77          H79   1.082       .  S
Cu80         N83   2.074       .  S
Cu81         N91   2.075       .  S
Cu82         N84   2.073       .  S
Cu82         N90   2.074       .  S
N83          N84   1.323       .  A
N83          C87   1.345       .  A
N84          C85   1.345       .  A
C85          C86   1.381       .  A
C85          H88   1.082       .  S
C86          C87   1.381       .  A
C86         C278   1.466       .  S
C87          H89   1.082       .  S
N90          N91   1.321       .  A
N90          C94   1.345       .  A
N91          C92   1.345       .  A
C92          C93   1.388       .  A
C92          H95   1.081       .  S
C93          C94   1.388       .  A
C93         C449   1.487       .  S
C94          H96   1.081       .  S
N97          N98   1.324       .  A
N97         C101   1.346       .  A
N97        Cu105   2.082       .  S
N98          C99   1.349       .  A
N98        Cu104   2.089       .  S
C99         C100   1.385       .  A
C99         H102   1.082       .  S
C100        C101   1.382       .  A
C100        C316   1.474       .  S
C101        H103   1.082       .  S
Cu104       N107   2.089   1_545  S
Cu105       N115   2.083       .  S
Cu106       N108   2.079       .  S
Cu106       N114   2.080   1_565  S
N107        N108   1.324       .  A
N107        C111   1.347       .  A
N108        C109   1.347       .  A
C109        C110   1.382       .  A
C109        H112   1.082       .  S
C110        C111   1.384       .  A
C110        C206   1.473       .  S
C111        H113   1.082       .  S
N114        N115   1.322       .  A
N114        C118   1.346       .  A
N115        C116   1.347       .  A
C116        C117   1.388       .  A
C116        H119   1.082       .  S
C117        C118   1.387       .  A
C117        C439   1.489       .  S
C118        H120   1.082   1_545  S
N121        N122   1.324       .  A
N121        C125   1.345       .  A
N121       Cu129   2.074       .  S
N122        C123   1.346       .  A
N122       Cu128   2.082   1_545  S
C123        C124   1.381       .  A
C123        H126   1.082       .  S
C124        C125   1.379       .  A
C125        H127   1.082       .  S
Cu128       N131   2.083       .  S
Cu129       N139   2.075       .  S
Cu130       N132   2.087       .  S
Cu130       N138   2.087       .  S
N131        N132   1.324       .  A
N131        C135   1.348       .  A
N132        C133   1.346       .  A
C133        C134   1.383       .  A
C133        H136   1.082       .  S
C134        C135   1.384       .  A
C135        H137   1.082       .  S
N138        N139   1.322   1_565  A
N138        C142   1.348       .  A
N139        C140   1.345       .  A
C140        C141   1.385       .  A
C140        H143   1.082       .  S
C141        C142   1.388   1_545  A
C141        C436   1.485       .  S
C142        H144   1.082       .  S
N145        N146   1.323       .  A
N145        C149   1.346       .  A
N145       Cu153   2.074       .  S
N146        C147   1.347       .  A
N146       Cu152   2.081       .  S
C147        C148   1.383       .  A
C147        H150   1.082       .  S
C148        C149   1.381       .  A
C148        C292   1.468       .  S
C149        H151   1.082       .  S
Cu152       N155   2.081       .  S
Cu153       N163   2.075       .  S
Cu154       N156   2.082       .  S
Cu154       N162   2.082       .  S
N155        N156   1.323       .  A
N155        C159   1.346       .  A
N156        C157   1.347       .  A
C157        C158   1.383       .  A
C157        H160   1.082       .  S
C158        C159   1.382       .  A
C158        C230   1.471       .  S
C159        H161   1.082       .  S
N162        N163   1.323       .  A
N162        C166   1.346       .  A
N163        C164   1.345       .  A
C164        C165   1.384       .  A
C164        H167   1.082       .  S
C165        C166   1.386       .  A
C165        C429   1.481       .  S
C166        H168   1.082       .  S
N169        N170   1.323       .  A
N169        C173   1.346       .  A
N169       Cu177   2.075       .  S
N170        C171   1.347       .  A
N170       Cu176   2.085       .  S
C171        C172   1.384       .  A
C171        H174   1.082       .  S
C172        C173   1.382       .  A
C173        H175   1.082       .  S
Cu176       N179   2.087       .  S
Cu177       N187   2.076       .  S
Cu178       N180   2.084       .  S
Cu178       N186   2.084       .  S
N179        N180   1.323       .  A
N179        C183   1.349       .  A
N180        C181   1.347       .  A
C181        C182   1.383       .  A
C181        H184   1.082       .  S
C182        C183   1.384       .  A
C183        H185   1.082       .  S
N186        N187   1.322       .  A
N186        C190   1.346       .  A
N187        C188   1.345       .  A
C188        C189   1.386       .  A
C188        H191   1.082       .  S
C189        C190   1.388       .  A
C189        C426   1.486       .  S
C190        H192   1.082       .  S
N193        N194   1.323       .  A
N193        C197   1.344       .  A
N193       Cu201   2.075       .  S
N194        C195   1.347       .  A
N194       Cu200   2.078       .  S
C195        C196   1.383       .  A
C195        H198   1.082       .  S
C196        C197   1.380       .  A
C196        C244   1.468       .  S
C197        H199   1.082       .  S
Cu200       N203   2.078       .  S
Cu201       N211   2.076       .  S
Cu202       N204   2.089       .  S
Cu202       N210   2.090       .  S
N203        N204   1.323       .  A
N203        C207   1.346       .  A
N204        C205   1.348       .  A
C205        C206   1.385       .  A
C205        H208   1.082       .  S
C206        C207   1.382       .  A
C207        H209   1.082       .  S
N210        N211   1.322       .  A
N210        C214   1.346       .  A
N211        C212   1.347       .  A
C212        C213   1.387       .  A
C212        H215   1.082       .  S
C213        C214   1.389       .  A
C213        C416   1.490       .  S
C214        H216   1.082       .  S
N217        N218   1.324       .  A
N217        C221   1.348       .  A
N217       Cu225   2.092       .  S
N218        C219   1.348       .  A
N218       Cu224   2.081       .  S
C219        C220   1.382       .  A
C219        H222   1.082       .  S
C220        C221   1.384       .  A
C220        C340   1.473       .  S
C221        H223   1.082       .  S
Cu224       N227   2.081       .  S
Cu225       N235   2.093       .  S
Cu226       N228   2.081       .  S
Cu226       N234   2.082       .  S
N227        N228   1.323       .  A
N227        C231   1.347       .  A
N228        C229   1.347       .  A
C229        C230   1.383       .  A
C229        H232   1.082       .  S
C230        C231   1.383       .  A
C231        H233   1.082       .  S
N234        N235   1.322       .  A
N234        C238   1.346       .  A
N235        C236   1.348       .  A
C236        C237   1.391       .  A
C236        H239   1.081       .  S
C237        C238   1.388       .  A
C237        C419   1.493       .  S
C238        H240   1.081       .  S
N241        N242   1.322       .  A
N241        C245   1.343       .  A
N241       Cu249   2.065       .  S
N242        C243   1.348       .  A
N242       Cu248   2.082       .  S
C243        C244   1.384       .  A
C243        H246   1.082       .  S
C244        C245   1.380       .  A
C245        H247   1.082       .  S
Cu248       N251   2.082       .  S
Cu249       N259   2.065       .  S
Cu250       N252   2.083       .  S
Cu250       N258   2.082       .  S
N251        N252   1.324       .  A
N251        C255   1.346       .  A
N252        C253   1.347       .  A
C253        C254   1.382       .  A
C253        H256   1.082       .  S
C254        C255   1.381       .  A
C254        C326   1.468       .  S
C255        H257   1.082       .  S
N258        N259   1.322       .  A
N258        C262   1.346       .  A
N259        C260   1.344       .  A
C260        C261   1.383       .  A
C260        H263   1.082       .  S
C261        C262   1.386       .  A
C261        C409   1.479       .  S
C262        H264   1.082       .  S
N265        N266   1.323       .  A
N265        C269   1.347       .  A
N265       Cu273   2.086       .  S
N266        C267   1.347       .  A
N266       Cu272   2.076       .  S
C267        C268   1.381       .  A
C267        H270   1.082       .  S
C268        C269   1.383       .  A
C269        H271   1.082       .  S
Cu272       N275   2.075       .  S
Cu273       N283   2.086       .  S
Cu274       N276   2.066       .  S
Cu274       N282   2.066       .  S
N275        N276   1.322       .  A
N275        C279   1.345       .  A
N276        C277   1.344       .  A
C277        C278   1.381       .  A
C277        H280   1.082       .  S
C278        C279   1.382       .  A
C279        H281   1.082       .  S
N282        N283   1.322       .  A
N282        C286   1.342       .  A
N283        C284   1.348       .  A
C284        C285   1.388       .  A
C284        H287   1.082       .  S
C285        C286   1.383       .  A
C285        C406   1.482       .  S
C286        H288   1.082       .  S
N289        N290   1.323       .  A
N289        C293   1.345       .  A
N289       Cu297   2.072       .  S
N290        C291   1.347       .  A
N290       Cu296   2.083       .  S
C291        C292   1.383       .  A
C291        H294   1.082       .  S
C292        C293   1.381       .  A
C293        H295   1.082       .  S
Cu296       N299   2.083       .  S
Cu297       N307   2.072       .  S
Cu298       N300   2.080       .  S
Cu298       N306   2.080       .  S
N299        N300   1.323       .  A
N299        C303   1.347       .  A
N300        C301   1.347       .  A
C301        C302   1.383       .  A
C301        H304   1.082       .  S
C302        C303   1.383       .  A
C302        C350   1.472       .  S
C303        H305   1.082       .  S
N306        N307   1.322       .  A
N306        C310   1.345       .  A
N307        C308   1.344       .  A
C308        C309   1.386       .  A
C308        H311   1.082       .  S
C309        C310   1.388       .  A
C309        C396   1.486       .  S
C310        H312   1.082       .  S
N313        N314   1.323       .  A
N313        C317   1.345       .  A
N313       Cu321   2.077       .  S
N314        C315   1.349       .  A
N314       Cu320   2.087       .  S
C315        C316   1.385       .  A
C315        H318   1.082       .  S
C316        C317   1.383       .  A
C317        H319   1.082       .  S
Cu320       N323   2.087       .  S
Cu321       N331   2.076       .  S
Cu322       N324   2.075       .  S
Cu322       N330   2.075       .  S
N323        N324   1.324       .  A
N323        C327   1.347       .  A
N324        C325   1.346       .  A
C325        C326   1.381       .  A
C325        H328   1.082       .  S
C326        C327   1.382       .  A
C327        H329   1.082       .  S
N330        N331   1.322       .  A
N330        C334   1.346       .  A
N331        C332   1.345       .  A
C332        C333   1.384       .  A
C332        H335   1.082       .  S
C333        C334   1.386       .  A
C333        C399   1.480       .  S
C334        H336   1.082       .  S
N337        N338   1.323       .  A
N337        C341   1.346       .  A
N337       Cu345   2.079       .  S
N338        C339   1.349       .  A
N338       Cu344   2.091   1_565  S
C339        C340   1.385       .  A
C339        H342   1.082       .  S
C340        C341   1.381       .  A
C341        H343   1.082       .  S
Cu344       N347   2.090       .  S
Cu345       N355   2.080   1_565  S
Cu346       N348   2.081       .  S
Cu346       N354   2.081       .  S
N347        N348   1.324       .  A
N347        C351   1.348       .  A
N348        C349   1.346       .  A
C349        C350   1.382       .  A
C349        H352   1.082       .  S
C350        C351   1.384       .  A
C351        H353   1.082       .  S
N354        N355   1.322       .  A
N354        C358   1.347       .  A
N355        C356   1.347   1_545  A
C356        C357   1.386   1_565  A
C356        H359   1.082       .  S
C357        C358   1.386       .  A
C357        C389   1.484       .  S
C358        H360   1.082       .  S
N361        N362   1.324       .  A
N361        C365   1.349       .  A
N361       Cu369   2.095       .  S
N362        C363   1.350       .  A
N362       Cu368   2.095   1_565  S
C363        C364   1.386       .  A
C363        H366   1.082       .  S
C364        C365   1.386       .  A
C365        H367   1.082       .  S
Cu368       N371   2.094       .  S
Cu369       N379   2.095       .  S
Cu370       N372   2.082       .  S
Cu370       N378   2.082       .  S
N371        N372   1.324       .  A
N371        C375   1.348       .  A
N372        C373   1.348       .  A
C373        C374   1.382       .  A
C373        H376   1.082       .  S
C374        C375   1.384       .  A
C375        H377   1.082       .  S
N378        N379   1.323   1_545  A
N378        C382   1.346       .  A
N379        C380   1.348       .  A
C380        C381   1.388   1_565  A
C380        H383   1.082       .  S
C381        C382   1.386       .  A
C381        C386   1.487       .  S
C382        H384   1.082       .  S
C385        C386   1.408       .  A
C385        C390   1.403       .  A
C385        F392   1.357       .  S
C386        C387   1.408       .  A
C387        C388   1.402       .  A
C387        F394   1.357       .  S
C388        C389   1.406       .  A
C388        F393   1.358       .  S
C389        C390   1.407       .  A
C390        F391   1.358       .  S
C395        C396   1.409   1_556  A
C395        C400   1.400       .  A
C395        F402   1.357   1_556  S
C396        C397   1.409   1_554  A
C397        C398   1.399       .  A
C397        F404   1.357   1_556  S
C398        C399   1.406       .  A
C398        F403   1.358       .  S
C399        C400   1.405       .  A
C400        F401   1.358       .  S
C405        C406   1.408       .  A
C405        C410   1.398   1_655  A
C405        F412   1.357       .  S
C406        C407   1.407       .  A
C407        C408   1.401   1_655  A
C407        F414   1.358       .  S
C408        C409   1.408       .  A
C408        F413   1.358       .  S
C409        C410   1.404       .  A
C410        F411   1.358       .  S
C415        C416   1.408       .  A
C415        C420   1.403       .  A
C415        F422   1.358       .  S
C416        C417   1.408       .  A
C417        C418   1.402       .  A
C417        F424   1.357       .  S
C418        C419   1.409       .  A
C418        F423   1.357       .  S
C419        C420   1.411       .  A
C420        F421   1.357       .  S
C425        C426   1.409       .  A
C425        C430   1.400   1_655  A
C425        F432   1.357       .  S
C426        C427   1.408       .  A
C427        C428   1.400   1_655  A
C427        F434   1.357       .  S
C428        C429   1.406       .  A
C428        F433   1.358       .  S
C429        C430   1.405       .  A
C430        F431   1.358       .  S
C435        C436   1.407       .  A
C435        C440   1.401       .  A
C435        F442   1.358       .  S
C436        C437   1.407   1_545  A
C437        C438   1.403       .  A
C437        F444   1.358       .  S
C438        C439   1.410   1_565  A
C438        F443   1.357       .  S
C439        C440   1.408       .  A
C440        F441   1.357       .  S
C445        C446   1.408       .  A
C445        C450   1.399       .  A
C445        F452   1.357       .  S
C446        C447   1.407       .  A
C447        C448   1.401       .  A
C447        F454   1.357       .  S
C448        C449   1.409       .  A
C448        F453   1.357       .  S
C449        C450   1.408       .  A
C450        F451   1.357       .  S
C455        C456   1.410   1_556  A
C455        C460   1.402       .  A
C455        F462   1.357   1_556  S
C456        C457   1.410   1_554  A
C457        C458   1.402       .  A
C457        F464   1.357   1_556  S
C458        C459   1.408       .  A
C458        F463   1.357       .  S
C459        C460   1.408       .  A
C460        F461   1.357       .  S
