geometry optimzed in LAMMPS
_audit_creation_date              2020-11-30 
_audit_creation_method            'lammps2cif' 
_symmetry_space_group_name_H-M    'P1' 
_symmetry_Int_Tables_number       1 
_symmetry_cell_setting            triclinic 
loop_ 
_symmetry_equiv_pos_as_xyz 
  x,y,z 
_cell_length_a                    36.25513141 
_cell_length_b                    35.91000803302005 
_cell_length_c                    53.709601775356816 
_cell_angle_alpha                 90.0397682429534 
_cell_angle_beta                  89.89252232795742 
_cell_angle_gamma                 120.16645224379813 
loop_ 
_atom_site_label 
_atom_site_type_symbol 
_atom_site_fract_x 
_atom_site_fract_y 
_atom_site_fract_z 
_atom_site_charge 
C1          C  0.04749860  0.09202503  0.63426120     0.02600
C2          C  0.01560715  0.09351148  0.64864156    -0.13500
C3          C  0.01830564  0.09438615  0.67468329     0.00100
C4          C  0.05227027  0.09368219  0.68593744    -0.12100
C5          C  0.08565774  0.09530593  0.67230749     0.02600
C6          C  0.08319230  0.09387308  0.64618843    -0.11500
H7          H  0.98856357  0.09288596  0.63966680     0.08200
H8          H  0.05245315  0.09131403  0.70609440     0.05700
H9          H  0.10842364  0.09403373  0.63527762     0.05600
C10         C  0.03910600  0.34525686  0.63830551     0.02600
C11         C  0.07445644  0.37366901  0.65301212    -0.13500
C12         C  0.07763597  0.36251769  0.67756173     0.00100
C13         C  0.04560230  0.32387576  0.68729848    -0.12100
C14         C  0.00676260  0.30104513  0.67502873     0.02600
C15         C  0.00359652  0.31042727  0.65007066    -0.11500
H16         H  0.09904712  0.40412077  0.64547956     0.08200
H17         H  0.04743668  0.31652086  0.70673897     0.05700
H18         H  0.47397663  0.29132975  0.64005080     0.05600
C19         C  0.43594231  0.44092744  0.81405282     0.02600
C20         C  0.41366335  0.39550219  0.81344778    -0.13500
C21         C  0.43548419  0.37227579  0.81364337     0.00100
C22         C  0.48073556  0.39558788  0.81485027    -0.12100
C23         C  0.50400398  0.44122517  0.81478553     0.02600
C24         C  0.48102063  0.46333112  0.81407404    -0.11500
H25         H  0.37910455  0.37811373  0.81311645     0.08200
H26         H  0.49795608  0.37817887  0.81530888     0.05700
H27         H  0.49832324  0.49821721  0.81445806     0.05600
O28         O  0.30011746  0.03218158  0.80959044    -0.85900
O29         O  0.37701682  0.09347038  0.79043333    -0.82900
C30         C  0.38828412  0.11045681  0.81141724     0.97600
O31         O  0.40075015  0.09352145  0.82741150    -0.83000
O32         O  0.40144787  0.02616146  0.85252312    -0.85600
C33         C  0.36759084  0.00296815  0.86490414     1.02100
O34         O  0.33230773  0.47991060  0.85393904    -0.78400
O35         O  0.27113861  0.46268447  0.81722473    -0.78500
C36         C  0.26825234  0.99701708  0.81602165     1.02100
O37         O  0.29525378  0.47397934  0.77174821    -0.85900
O38         O  0.37722477  0.03257359  0.75902149    -0.82900
C39         C  0.41677126  0.05767370  0.76087150     0.97600
O40         O  0.43393015  0.07162576  0.78217737    -0.83000
O41         O  0.43039206  0.00382099  0.80820098    -0.85600
C42         C  0.41217315  0.46494705  0.81515577     1.02100
O43         O  0.37414481  0.44638675  0.82339938    -0.78400
O44         O  0.32119599  0.43556636  0.78489867    -0.78500
C45         C  0.30759998  0.44788628  0.76700886     1.02000
Cr46       Cr  0.33854027  0.03181054  0.78434665     1.93700
Cr47       Cr  0.41292655  0.04657639  0.81694951     1.93200
Cr48       Cr  0.32655236  0.45959310  0.81906139     1.39100
O49         O  0.35982404  0.01256097  0.80705367    -1.23600
O50         O  0.34735174  0.14278763  0.80970506    -0.85900
O51         O  0.28577036  0.15547530  0.78752216    -0.82900
C52         C  0.26390775  0.15213289  0.80635126     0.97600
O53         O  0.27924081  0.18188123  0.82239604    -0.83000
O54         O  0.34549584  0.24896332  0.84899542    -0.85600
C55         C  0.36910687  0.23966861  0.86191809     1.02100
O56         O  0.39439094  0.22921404  0.85211465    -0.78400
O57         O  0.41535806  0.18581266  0.81678810    -0.78500
C58         C  0.38325178  0.14791658  0.81545161     1.02100
O59         O  0.40488987  0.19520561  0.77166781    -0.85900
O60         O  0.34596766  0.21562818  0.75596365    -0.82900
C61         C  0.32191002  0.23148280  0.75638677     0.97600
O62         O  0.30817726  0.23745952  0.77711518    -0.83000
O63         O  0.37308340  0.30307119  0.80538946    -0.85600
C64         C  0.41107235  0.32384892  0.81349900     1.02100
O65         O  0.42877310  0.30392007  0.82198150    -0.78400
O66         O  0.44070865  0.26116251  0.78346368    -0.78500
C67         C  0.43042966  0.23364822  0.76635741     1.02000
Cr68       Cr  0.34715161  0.18000442  0.78303938     1.93700
Cr69       Cr  0.32909150  0.24136665  0.81290644     1.93200
Cr70       Cr  0.41606899  0.24322371  0.81767445     1.39100
O71         O  0.36392035  0.22202947  0.80491313    -1.23600
O72         O  0.21409837  0.09024878  0.78702768    -0.85900
O73         O  0.23028412  0.03173232  0.80953930    -0.82900
C74         C  0.22762938  0.99719748  0.81668964     0.97600
O75         O  0.19063012  0.46340193  0.81961680    -0.83000
O76         O  0.14825066  0.48654500  0.85498725    -0.85600
C77         C  0.13464888  0.00970980  0.86444635     1.02100
O78         O  0.12416013  0.03187227  0.85093018    -0.78400
O79         O  0.19347759  0.09748020  0.82358731    -0.78500
C80         C  0.22144721  0.11197090  0.80651555     1.02100
O81         O  0.15252650  0.02607126  0.75795637    -0.85900
O82         O  0.17663189  0.46872827  0.77379713    -0.82900
C83         C  0.13848828  0.43994138  0.77090005     0.97600
O84         O  0.11266163  0.43191658  0.78847661    -0.83000
O85         O  0.07163040  0.44849744  0.82532764    -0.85600
C86         C  0.05186285  0.46566729  0.81551204     1.02100
O87         O  0.07239605  0.00406644  0.80735154    -0.78400
O88         O  0.13716766  0.06921001  0.77894211    -0.78500
C89         C  0.14109914  0.05388641  0.75824582     1.02000
Cr90       Cr  0.19083413  0.02799030  0.78388085     1.93700
Cr91       Cr  0.13239886  0.46116106  0.82122796     1.93200
Cr92       Cr  0.13323225  0.04829095  0.81475982     1.39100
O93         O  0.15141793  0.01239032  0.80689054    -1.23600
C94         C  0.30975285  0.34907062  0.63369935     0.02600
C95         C  0.30066391  0.30978239  0.64520672    -0.13500
C96         C  0.30003234  0.30668707  0.67129110     0.00100
C97         C  0.30875524  0.34248801  0.68545654    -0.12100
C98         C  0.31874113  0.38164297  0.67484027     0.02600
C99         C  0.31814197  0.38495938  0.64879603    -0.11500
H100        H  0.29447159  0.28216126  0.63398793     0.08200
H101        H  0.30857062  0.34003425  0.70561777     0.05700
H102        H  0.32448713  0.41502560  0.64039740     0.05600
C103        C  0.21350055  0.42757070  0.30147145     0.02600
C104        C  0.25125156  0.43249625  0.31216999    -0.13500
C105        C  0.26250483  0.44900506  0.33633898     0.00100
C106        C  0.23864111  0.46447493  0.34811587    -0.12100
C107        C  0.19583947  0.44713147  0.34137403     0.02600
C108        C  0.18365356  0.43024462  0.31721251    -0.11500
H109        H  0.27116313  0.42302189  0.30213142     0.08200
H110        H  0.24864496  0.47860549  0.36650655     0.05700
H111        H  0.15119207  0.41759248  0.31093616     0.05600
C112        C  0.46007104  0.18266093  0.30473067     0.02600
C113        C  0.44378998  0.14509875  0.31951482    -0.13500
C114        C  0.44075720  0.14792855  0.34549567     0.00100
C115        C  0.45405630  0.18789651  0.35607763    -0.12100
C116        C  0.47194814  0.22532035  0.34198865     0.02600
C117        C  0.47467976  0.22311063  0.31610554    -0.11500
H118        H  0.43455242  0.11431887  0.31093973     0.08200
H119        H  0.45387635  0.19080293  0.37619174     0.05700
H120        H  0.48836078  0.25225655  0.30502620     0.05600
C121        C  0.10976712  0.29152063  0.48267847     0.02600
C122        C  0.15496497  0.31328522  0.48072438    -0.13500
C123        C  0.17718391  0.29035192  0.47770689     0.00100
C124        C  0.15326414  0.24503859  0.47659530    -0.12100
C125        C  0.10843394  0.22219021  0.47910400     0.02600
C126        C  0.08715920  0.24585640  0.48221385    -0.11500
H127        H  0.17288109  0.34810628  0.48161645     0.08200
H128        H  0.16994498  0.22727760  0.47447356     0.05700
H129        H  0.05270941  0.22863830  0.48380905     0.05600
O130        O  0.46448292  0.37337158  0.47495203    -0.85900
O131        O  0.03961991  0.43850235  0.45613431    -0.82900
C132        C  0.05933439  0.46140477  0.47443510     0.97600
O133        O  0.07195871  0.44616057  0.49142961    -0.83000
O134        O  0.06916001  0.37901479  0.51933989    -0.85600
C135        C  0.03460326  0.35514884  0.53104215     1.02100
O136        O  0.50097682  0.32892988  0.51988503    -0.78400
O137        O  0.44107747  0.30505909  0.48172700    -0.78500
C138        C  0.43390232  0.33621344  0.47960024     1.02100
O139        O  0.46728710  0.31836275  0.43798287    -0.85900
O140        O  0.04729472  0.38217980  0.42501469    -0.82900
C141        C  0.08705105  0.40542614  0.42766379     0.97600
O142        O  0.10392543  0.41916502  0.44896796    -0.83000
O143        O  0.10272441  0.35457981  0.47738042    -0.85600
C144        C  0.08565863  0.31578219  0.48439236     1.02100
O145        O  0.04761987  0.29681599  0.49239059    -0.78400
O146        O  0.49763280  0.28408677  0.45138691    -0.78500
C147        C  0.48234807  0.29451032  0.43342797     1.02000
Cr148      Cr  0.00608389  0.37678153  0.45040759     1.93700
Cr149      Cr  0.08267445  0.39683436  0.48366344     1.93200
Cr150      Cr  0.49881766  0.30758034  0.48555151     1.39100
O151        O  0.02983045  0.36074184  0.47355637    -1.23600
O152        O  0.05956050  0.51575597  0.45178443    -0.85900
O153        O  0.47809930  0.49090803  0.46889036    -0.82900
C154        C  0.44578549  0.49289406  0.47579751     0.97600
O155        O  0.44717032  0.02851278  0.47843029    -0.83000
O156        O  0.50478431  0.07691977  0.51555721    -0.85600
C157        C  0.03900611  0.08698647  0.52709547     1.02100
O158        O  0.07376038  0.09778136  0.51604400    -0.78400
O159        O  0.07612597  0.03270808  0.49001651    -0.78500
C160        C  0.06642030  0.50562620  0.47276811     1.02100
O161        O  0.05700182  0.07791312  0.42240977    -0.85900
O162        O  0.47056881  0.04056527  0.43171536    -0.82900
C163        C  0.47249071  0.07600374  0.42893560     0.97600
O164        O  0.48943868  0.10425287  0.44574321    -0.83000
O165        O  0.04495533  0.15266175  0.48398066    -0.85600
C166        C  0.08460973  0.17369482  0.47891323     1.02100
O167        O  0.10482744  0.15421955  0.47407463    -0.78400
O168        O  0.11249596  0.09385040  0.44623417    -0.78500
C169        C  0.09638656  0.09273441  0.42489647     1.02000
Cr170      Cr  0.51728259  0.03379569  0.44569119     1.93700
Cr171      Cr  0.49911889  0.08934971  0.48023292     1.93200
Cr172      Cr  0.08796442  0.09306424  0.48075253     1.39100
O173        O  0.03535946  0.07318624  0.46921456    -1.23600
O174        O  0.40688516  0.41919791  0.47016085    -0.85900
O175        O  0.38663335  0.33983170  0.45249113    -0.82900
C176        C  0.39119245  0.32925078  0.47395076     0.97600
O177        O  0.36090388  0.31715831  0.48933562    -0.83000
O178        O  0.29418999  0.31965327  0.51339238    -0.85600
C179        C  0.30876659  0.35466291  0.52548267     1.02100
O180        O  0.32367969  0.39039778  0.51431709    -0.78400
O181        O  0.36905182  0.45024601  0.47712562    -0.78500
C182        C  0.40508507  0.45208627  0.47597212     1.02100
O183        O  0.35663257  0.42634144  0.43155140    -0.85900
O184        O  0.32799727  0.34241013  0.42005044    -0.82900
C185        C  0.31372863  0.30262930  0.42201019     0.97600
O186        O  0.30757870  0.28495842  0.44348172    -0.83000
O187        O  0.24372856  0.29287279  0.46895619    -0.85600
C188        C  0.22527043  0.31285957  0.47671886     1.02100
O189        O  0.24731070  0.35134462  0.48450996    -0.78400
O190        O  0.29256702  0.40384192  0.44510451    -0.78500
C191        C  0.31942222  0.41887832  0.42759516     1.02000
Cr192      Cr  0.36673419  0.38074895  0.44529267     1.93700
Cr193      Cr  0.30315594  0.30720345  0.47799577     1.93200
Cr194      Cr  0.30937100  0.39670426  0.47946298     1.39100
O195        O  0.32565761  0.36107799  0.46776396    -1.23600
C196        C  0.22492178  0.17129240  0.29835694     0.02600
C197        C  0.26271388  0.20172074  0.31054397    -0.13500
C198        C  0.26686863  0.19843023  0.33638743     0.00100
C199        C  0.23553883  0.16266957  0.34902615    -0.12100
C200        C  0.19673040  0.13500084  0.33789329     0.02600
C201        C  0.19124418  0.13883643  0.31241480    -0.11500
H202        H  0.28710304  0.22917058  0.30039078     0.08200
H203        H  0.23794198  0.16086692  0.36910224     0.05700
H204        H  0.16071877  0.11762710  0.30379076     0.05600
C205        C  0.36834168  0.50170932  0.97344599     0.02600
C206        C  0.34898430  0.46300438  0.98748087    -0.13500
C207        C  0.34870555  0.46489529  0.01361990     0.00100
C208        C  0.36436826  0.50468165  0.02505643    -0.12100
C209        C  0.38676410  0.04398526  0.01173210     0.02600
C210        C  0.38960441  0.04254485  0.98573484    -0.11500
H211        H  0.33474170  0.43207633  0.97818200     0.08200
H212        H  0.36193855  0.50595756  0.04514514     0.05700
H213        H  0.40681257  0.07223400  0.97526070     0.05600
C214        C  0.36343121  0.25536759  0.96836079     0.02600
C215        C  0.38744877  0.24359771  0.98364264    -0.13500
C216        C  0.38680357  0.24823799  0.00944163     0.00100
C217        C  0.36477090  0.26692580  0.01961716    -0.12100
C218        C  0.33842432  0.27624177  0.00519559     0.02600
C219        C  0.33833758  0.27111840  0.97920844    -0.11500
H220        H  0.40527766  0.22974692  0.97557888     0.08200
H221        H  0.36504617  0.27014447  0.03970812     0.05700
H222        H  0.31863269  0.27865031  0.96754635     0.05600
C223        C  0.26468924  0.10756422  0.14192046     0.02600
C224        C  0.24301368  0.06199674  0.14238479    -0.13500
C225        C  0.26525387  0.03916269  0.14487123     0.00100
C226        C  0.31018077  0.06317101  0.14755786    -0.12100
C227        C  0.33289385  0.10878057  0.14700624     0.02600
C228        C  0.30966808  0.13042256  0.14374150    -0.11500
H229        H  0.20854698  0.04424312  0.14096895     0.08200
H230        H  0.32768915  0.04625712  0.14970004     0.05700
H231        H  0.32653099  0.16530727  0.14357293     0.05600
O232        O  0.04122832  0.25708871  0.11993361    -0.85900
O233        O  0.05751599  0.19712793  0.14147841    -0.82900
C234        C  0.05457745  0.16206847  0.14793437     0.97600
O235        O  0.01773720  0.12852665  0.15034593    -0.83000
O236        O  0.97686577  0.14981680  0.18723089    -0.85600
C237        C  0.96624844  0.17468489  0.19761180     1.02100
O238        O  0.95554280  0.19769290  0.18504449    -0.78400
O239        O  0.02212859  0.26324463  0.15707085    -0.78500
C240        C  0.04938307  0.27824357  0.13968971     1.02100
O241        O  0.97932482  0.19366134  0.09114859    -0.85900
O242        O  0.00246821  0.13618058  0.10559707    -0.82900
C243        C  0.46493311  0.11290095  0.10096892     0.97600
O244        O  0.43983797  0.10184479  0.11922914    -0.83000
O245        O  0.40036481  0.11548538  0.15802859    -0.85600
C246        C  0.38078587  0.13369016  0.14936959     1.02100
O247        O  0.40144431  0.17275122  0.14262673    -0.78400
O248        O  0.46256562  0.23618307  0.11377398    -0.78500
C249        C  0.46312757  0.21872307  0.09312930     1.02000
Cr250      Cr  0.01802805  0.19495032  0.11627643     1.93700
Cr251      Cr  0.46084333  0.12811144  0.15274724     1.93200
Cr252      Cr  0.46272071  0.21600773  0.14919590     1.39100
O253        O  0.97905680  0.17849295  0.13975661    -1.23600
O254        O  0.17230787  0.30717794  0.14143584    -0.85900
O255        O  0.11220550  0.32417214  0.11982640    -0.82900
C256        C  0.09163532  0.31863709  0.13948960     0.97600
O257        O  0.10838272  0.34678403  0.15634437    -0.83000
O258        O  0.17498868  0.41392630  0.18247686    -0.85600
C259        C  0.19917276  0.40466801  0.19471265     1.02100
O260        O  0.22513623  0.39622049  0.18396424    -0.78400
O261        O  0.24072291  0.34882609  0.14903524    -0.78500
C262        C  0.20804824  0.31142698  0.14705654     1.02100
O263        O  0.22837783  0.35485263  0.10262309    -0.85900
O264        O  0.17461924  0.38460270  0.08936717    -0.82900
C265        C  0.14978715  0.39949719  0.09064936     0.97600
O266        O  0.13531629  0.40364308  0.11155897    -0.83000
O267        O  0.20061644  0.46853777  0.13946424    -0.85600
C268        C  0.23987827  0.48942408  0.14511730     1.02100
O269        O  0.25924361  0.46961397  0.15132173    -0.78400
O270        O  0.26988383  0.42082970  0.11426564    -0.78500
C271        C  0.26010754  0.39097431  0.09854081     1.02000
Cr272      Cr  0.17328097  0.34581990  0.11527870     1.93700
Cr273      Cr  0.15758080  0.40672207  0.14675758     1.93200
Cr274      Cr  0.24474900  0.40756778  0.14890839     1.39100
O275        O  0.19225323  0.38762710  0.13725536    -1.23600
O276        O  0.12670780  0.19682264  0.14057032    -0.85900
O277        O  0.20039498  0.25841325  0.12045708    -0.82900
C278        C  0.21299163  0.27439593  0.14154281     0.97600
O279        O  0.22836339  0.25801951  0.15599840    -0.83000
O280        O  0.23370724  0.19138649  0.17824579    -0.85600
C281        C  0.20116360  0.17088231  0.19194891     1.02100
O282        O  0.16427925  0.14924848  0.18262159    -0.78400
O283        O  0.09843749  0.12813528  0.14798561    -0.78500
C284        C  0.09508844  0.16178183  0.14702540     1.02100
O285        O  0.11864859  0.13983079  0.10105875    -0.85900
O286        O  0.20019894  0.20016370  0.08651216    -0.82900
C287        C  0.23914832  0.22864193  0.08767820     0.97600
O288        O  0.25783703  0.23953868  0.10874433    -0.83000
O289        O  0.25728520  0.16920503  0.13264725    -0.85600
C290        C  0.24020369  0.13117895  0.14132689     1.02100
O291        O  0.20283437  0.11337554  0.15066677    -0.78400
O292        O  0.14342163  0.09935512  0.11432986    -0.78500
C293        C  0.12458689  0.10863213  0.09787652     1.02000
Cr294      Cr  0.16285680  0.19705196  0.11373211     1.93700
Cr295      Cr  0.24053710  0.21220588  0.14317979     1.93200
Cr296      Cr  0.15441977  0.12609907  0.14805161     1.39100
O297        O  0.18652832  0.17792864  0.13482217    -1.23600
C298        C  0.09883362  0.48855490  0.96991852     0.02600
C299        C  0.09864314  0.45355118  0.98190267    -0.13500
C300        C  0.08926072  0.44652424  0.00738329     0.00100
C301        C  0.07960209  0.47393303  0.02052987    -0.12100
C302        C  0.08533352  0.01181082  0.00959250     0.02600
C303        C  0.09348484  0.01848335  0.98394932    -0.11500
H304        H  0.10749103  0.43312047  0.97174581     0.08200
H305        H  0.07577500  0.47032540  0.04060299     0.05700
H306        H  0.09656429  0.04713019  0.97524617     0.05600
C307        C  0.05940307  0.03460832  0.04560500    -0.09700
C308        C  0.09097074  0.04581140  0.02716486     0.06500
C309        C  0.13262231  0.08020184  0.03177130    -0.03400
C310        C  0.14268048  0.10012639  0.05504472    -0.07900
C311        C  0.11212722  0.08601503  0.07404912     0.05600
C312        C  0.06995596  0.05385762  0.06913005    -0.02900
Br313      Br  0.02690418  0.03309895  0.09456280    -0.02600
H314        H  0.02760882  0.00749701  0.04260505     0.09500
H315        H  0.17503449  0.12568602  0.05864865     0.07600
Br316      Br  0.17877994  0.09704380  0.00858820    -0.03000
C317        C  0.08992482  0.38824498  0.06383788    -0.09700
C318        C  0.13405487  0.40727453  0.06723431     0.06500
C319        C  0.16191702  0.43031861  0.04750064    -0.03400
C320        C  0.14544835  0.43652235  0.02541234    -0.07900
C321        C  0.10152177  0.42073912  0.02285973     0.05600
C322        C  0.07349498  0.39424478  0.04170155    -0.02900
Br323      Br  0.01292519  0.37061716  0.03915382    -0.02600
H324        H  0.06818636  0.36919533  0.07860143     0.09500
H325        H  0.16743796  0.45801719  0.01143830     0.07600
Br326      Br  0.22284378  0.45928006  0.05102875    -0.03000
C327        C  0.24188411  0.23285414  0.04142183    -0.09700
C328        C  0.26146308  0.25094157  0.06434336     0.06500
C329        C  0.30057085  0.29055131  0.06393901    -0.03400
C330        C  0.32137187  0.30718835  0.04118491    -0.07900
C331        C  0.30650738  0.28238326  0.01928658     0.05600
C332        C  0.26378959  0.24869950  0.01899431    -0.02900
Br333      Br  0.23502659  0.22007204  0.98906613    -0.02600
H334        H  0.21026827  0.20468659  0.04086261     0.09500
H335        H  0.35339579  0.33482703  0.04150814     0.07600
Br336      Br  0.32974870  0.32192179  0.09336769    -0.03000
C337        C  0.45079594  0.25266609  0.02882960    -0.09700
C338        C  0.40626601  0.23208310  0.02720475     0.06500
C339        C  0.38090737  0.20437803  0.04661611    -0.03400
C340        C  0.40013488  0.20162861  0.06836831    -0.07900
C341        C  0.44442387  0.22490800  0.07073881     0.05600
C342        C  0.47002026  0.24851540  0.05037909    -0.02900
Br343      Br  0.03303532  0.27608702  0.05295540    -0.02600
H344        H  0.47050396  0.27389429  0.01404412     0.09500
H345        H  0.38049197  0.18119522  0.08345541     0.07600
Br346      Br  0.31959911  0.17205991  0.04498362    -0.03000
C347        C  0.28609907  0.39936639  0.02976653    -0.09700
C348        C  0.33015418  0.42737010  0.03065199     0.06500
C349        C  0.35164210  0.43108726  0.05333350    -0.03400
C350        C  0.32853694  0.41883406  0.07558476    -0.07900
C351        C  0.28400712  0.39731308  0.07512845     0.05600
C352        C  0.26295465  0.38284493  0.05184892    -0.02900
Br353      Br  0.20267791  0.34427638  0.04849873    -0.02600
H354        H  0.26911352  0.39431459  0.01238062     0.09500
H355        H  0.34533183  0.42718901  0.09319325     0.07600
Br356      Br  0.41284984  0.46200288  0.05519846    -0.03000
C357        C  0.45469241  0.09545304  0.03058913    -0.09700
C358        C  0.41152649  0.08249588  0.02735193     0.06500
C359        C  0.38984648  0.08938989  0.04703670    -0.03400
C360        C  0.40765933  0.09860690  0.07082640    -0.07900
C361        C  0.44851885  0.10456352  0.07507386     0.05600
C362        C  0.47356294  0.10704138  0.05419250    -0.02900
Br363      Br  0.03119470  0.12162614  0.05664286    -0.02600
H364        H  0.47221535  0.09131791  0.01550986     0.09500
H365        H  0.38895275  0.10008666  0.08615158     0.07600
Br366      Br  0.33171289  0.07566221  0.04349810    -0.03000
C367        C  0.24620781  0.16736889  0.25502014    -0.09700
C368        C  0.21978654  0.17408499  0.27120372     0.06500
C369        C  0.18746152  0.18053699  0.26118464    -0.03400
C370        C  0.18119222  0.17877066  0.23534499    -0.07900
C371        C  0.20734470  0.17145204  0.21917031     0.05600
C372        C  0.24021733  0.16590686  0.22925949    -0.02900
Br373      Br  0.27584950  0.15289027  0.20890346    -0.02600
H374        H  0.27084788  0.16194640  0.26251756     0.09500
H375        H  0.15639946  0.18394303  0.22784771     0.07600
Br376      Br  0.15267283  0.19402077  0.28196044    -0.03000
C377        C  0.31469801  0.22716897  0.37266351    -0.09700
C378        C  0.29442271  0.23522292  0.35270897     0.06500
C379        C  0.28559137  0.26911371  0.35507472    -0.03400
C380        C  0.29291139  0.29076474  0.37769343    -0.07900
C381        C  0.30758564  0.27860740  0.39860867     0.05600
C382        C  0.32027711  0.24766583  0.39568021    -0.02900
Br383      Br  0.34453292  0.23142190  0.42233332    -0.02600
H384        H  0.32145160  0.20106040  0.37124023     0.09500
H385        H  0.28498670  0.31597652  0.37924857     0.07600
Br386      Br  0.25698246  0.28299186  0.32979012    -0.03000
C387        C  0.13929264  0.13559771  0.36101095    -0.09700
C388        C  0.16103204  0.11346283  0.35542181     0.06500
C389        C  0.16105123  0.08427675  0.37294312    -0.03400
C390        C  0.14093883  0.07885755  0.39594829    -0.07900
C391        C  0.12150698  0.10296328  0.40199980     0.05600
C392        C  0.12029881  0.13114691  0.38427039    -0.02900
Br393      Br  0.09730525  0.16770533  0.39208885    -0.02600
H394        H  0.14111239  0.15992076  0.34830477     0.09500
H395        H  0.14087404  0.05614107  0.40924784     0.07600
Br396      Br  0.19302683  0.05570358  0.36734648    -0.03000
C397        C  0.46014833  0.09559866  0.36117969    -0.09700
C398        C  0.43377578  0.11348679  0.36318970     0.06500
C399        C  0.41218571  0.10903488  0.38595887    -0.03400
C400        C  0.42489894  0.09652798  0.40740097    -0.07900
C401        C  0.45548044  0.08378933  0.40589912     0.05600
C402        C  0.46945467  0.07887453  0.38212338    -0.02900
Br403      Br  0.50279036  0.05183248  0.37663465    -0.02600
H404        H  0.47582504  0.09718860  0.34369389     0.09500
H405        H  0.41129556  0.09721801  0.42525210     0.07600
Br406      Br  0.36811105  0.12361327  0.38888699    -0.03000
C407        C  0.45724619  0.28556071  0.38979144    -0.09700
C408        C  0.48588262  0.28457492  0.40710584     0.06500
C409        C  0.52005995  0.28004501  0.39809266    -0.03400
C410        C  0.52222631  0.27236371  0.37273963    -0.07900
C411        C  0.48866922  0.26498848  0.35664230     0.05600
C412        C  0.45863678  0.27605810  0.36472693    -0.02900
Br413      Br  0.41411657  0.27021719  0.34305102    -0.02600
H414        H  0.43227845  0.29163751  0.39592839     0.09500
H415        H  0.04641353  0.26479049  0.36643340     0.07600
Br416      Br  0.06412897  0.28217015  0.41896734    -0.03000
C417        C  0.42656948  0.17088975  0.26318857    -0.09700
C418        C  0.46236590  0.17982101  0.27743636     0.06500
C419        C  0.49974865  0.18641882  0.26544286    -0.03400
C420        C  0.50098844  0.18435876  0.23938838    -0.07900
C421        C  0.46542698  0.17647657  0.22505579     0.05600
C422        C  0.42784291  0.16919089  0.23721536    -0.02900
Br423      Br  0.37658195  0.15431550  0.21927476    -0.02600
H424        H  0.39753297  0.16527741  0.27232673     0.09500
H425        H  0.52996372  0.18971988  0.23029725     0.07600
Br426      Br  0.54962994  0.19858774  0.28405589    -0.03000
C427        C  0.33571589  0.46046407  0.38783210    -0.09700
C428        C  0.30743810  0.42434848  0.40214565     0.06500
C429        C  0.26992201  0.39167164  0.39087064    -0.03400
C430        C  0.25991228  0.39701181  0.36652328    -0.07900
C431        C  0.28530995  0.43556866  0.35353200     0.05600
C432        C  0.32439137  0.46629206  0.36377246    -0.02900
Br433      Br  0.36098062  0.51707474  0.34531779    -0.02600
H434        H  0.36568683  0.48495351  0.39571830     0.09500
H435        H  0.22945040  0.37311079  0.35882710     0.07600
Br436      Br  0.23027382  0.33951387  0.40783559    -0.03000
C437        C  0.10331872  0.43044076  0.38356197    -0.09700
C438        C  0.11411733  0.41642778  0.40544190     0.06500
C439        C  0.14946155  0.41058711  0.40529917    -0.03400
C440        C  0.17318996  0.41857246  0.38379337    -0.07900
C441        C  0.16476152  0.43528698  0.36220406     0.05600
C442        C  0.12866372  0.44041034  0.36200372    -0.02900
Br443      Br  0.11350787  0.46241754  0.33369760    -0.02600
H444        H  0.07570881  0.43452262  0.38343503     0.09500
H445        H  0.19917281  0.41221309  0.38429041     0.07600
Br446      Br  0.16696972  0.39046640  0.43340373    -0.03000
C447        C  0.19068081  0.43691033  0.23353621    -0.09700
C448        C  0.19852529  0.40628141  0.22226638     0.06500
C449        C  0.20770536  0.37994552  0.23754724    -0.03400
C450        C  0.21078125  0.38607270  0.26339735    -0.07900
C451        C  0.20479581  0.41809024  0.27452414     0.05600
C452        C  0.19406128  0.44327177  0.25927364    -0.02900
Br453      Br  0.18797149  0.49001904  0.27189077    -0.02600
H454        H  0.18385523  0.45760260  0.22213558     0.09500
H455        H  0.21834076  0.36598852  0.27484999     0.07600
Br456      Br  0.21502052  0.33425581  0.22445711    -0.03000
C457        C  0.34395384  0.38431615  0.56640068    -0.09700
C458        C  0.30809138  0.35361949  0.55314810     0.06500
C459        C  0.27245334  0.32232521  0.56663701    -0.03400
C460        C  0.27360988  0.32167565  0.59272837    -0.07900
C461        C  0.30972035  0.35194389  0.60600101     0.05600
C462        C  0.34519107  0.38354012  0.59250933    -0.02900
Br463      Br  0.39735805  0.42446006  0.60852346    -0.02600
H464        H  0.37168856  0.40837088  0.55635289     0.09500
H465        H  0.24590125  0.29755169  0.60276310     0.07600
Br466      Br  0.22031578  0.28134824  0.55056568    -0.03000
C467        C  0.07808135  0.49286384  0.92655858    -0.09700
C468        C  0.11158560  0.99761317  0.94327547     0.06500
C469        C  0.15186855  0.00775396  0.93377560    -0.03400
C470        C  0.15928973  0.01234875  0.90804180    -0.07900
C471        C  0.12726690  0.00779115  0.89156414     0.05600
C472        C  0.08721989  0.99838646  0.90122549    -0.02900
Br473      Br  0.03908150  0.48759129  0.87975337    -0.02600
H474        H  0.04690446  0.48493686  0.93354227     0.09500
H475        H  0.19015912  0.01961024  0.90087584     0.07600
Br476      Br  0.19801050  0.01706837  0.95525056    -0.03000
C477        C  0.33023071  0.21636731  0.90204668    -0.09700
C478        C  0.36817583  0.24288841  0.88913345     0.06500
C479        C  0.40453637  0.27309298  0.90235437    -0.03400
C480        C  0.40231430  0.27672253  0.92816322    -0.07900
C481        C  0.36426937  0.25041018  0.94111653     0.05600
C482        C  0.32827679  0.21937680  0.92793271    -0.02900
Br483      Br  0.27694235  0.17826967  0.94447355    -0.02600
H484        H  0.30233211  0.19267114  0.89201387     0.09500
H485        H  0.43025772  0.30043207  0.93815719     0.07600
Br486      Br  0.45719172  0.31160082  0.88583046    -0.03000
C487        C  0.33442438  0.24606039  0.71078152    -0.09700
C488        C  0.30934547  0.24147343  0.73198820     0.06500
C489        C  0.27319285  0.24609221  0.72892970    -0.03400
C490        C  0.26397994  0.25643604  0.70553308    -0.07900
C491        C  0.29354375  0.26883183  0.68583562     0.05600
C492        C  0.32743678  0.26062539  0.68806531    -0.02900
Br493      Br  0.36877525  0.27513919  0.66202039    -0.02600
H494        H  0.36170950  0.24157244  0.71226384     0.09500
H495        H  0.23793191  0.26296470  0.70410737     0.07600
Br496      Br  0.23840605  0.24518200  0.75611154    -0.03000
C497        C  0.33045563  0.98434054  0.90623768    -0.09700
C498        C  0.36906112  0.00245779  0.89276468     0.06500
C499        C  0.40770244  0.01898958  0.90640606    -0.03400
C500        C  0.40692257  0.01851207  0.93252261    -0.07900
C501        C  0.36838099  0.00081454  0.94572202     0.05600
C502        C  0.32985613  0.98327734  0.93233193    -0.02900
Br503      Br  0.27560186  0.95945420  0.94881129    -0.02600
H504        H  0.30035734  0.97127137  0.89647639     0.09500
H505        H  0.43669631  0.03162816  0.94266093     0.07600
Br506      Br  0.46282060  0.04087707  0.89117824    -0.03000
C507        C  0.29722887  0.42870183  0.69659803    -0.09700
C508        C  0.32787392  0.41637073  0.69286108     0.06500
C509        C  0.35665094  0.42304824  0.71232563    -0.03400
C510        C  0.34823929  0.43163543  0.73628968    -0.07900
C511        C  0.31424218  0.43885092  0.74092241     0.05600
C512        C  0.29165693  0.44193587  0.72025114    -0.02900
Br513      Br  0.25305827  0.46350406  0.72283204    -0.02600
H514        H  0.27566937  0.42515184  0.68165262     0.09500
H515        H  0.36883448  0.43313871  0.75132658     0.07600
Br516      Br  0.40418370  0.41412756  0.70767411    -0.03000
C517        C  0.45810249  0.23440762  0.69773115    -0.09700
C518        C  0.46973211  0.27666864  0.69139683     0.06500
C519        C  0.46054391  0.30106111  0.70821427    -0.03400
C520        C  0.44915056  0.28700383  0.73266673    -0.07900
C521        C  0.44221360  0.24655306  0.74007365     0.05600
C522        C  0.44215701  0.21840404  0.72152462    -0.02900
Br523      Br  0.42093497  0.15835910  0.72700983    -0.02600
H524        H  0.46396578  0.21483496  0.68475605     0.09500
H525        H  0.44546936  0.30774677  0.74586874     0.07600
Br526      Br  0.96898343  0.35654451  0.69957358    -0.03000
C527        C  0.08520569  0.41484175  0.70837474    -0.09700
C528        C  0.10434080  0.39417154  0.69636718     0.06500
C529        C  0.13581544  0.38956323  0.70890837    -0.03400
C530        C  0.14621597  0.40385557  0.73352492    -0.07900
C531        C  0.12425462  0.42107691  0.74613053     0.05600
C532        C  0.09308981  0.42606460  0.73340330    -0.02900
Br533      Br  0.05810463  0.44522015  0.74939670    -0.02600
H534        H  0.06019250  0.41754504  0.69906716     0.09500
H535        H  0.17022876  0.39995514  0.74320633     0.07600
Br536      Br  0.16251441  0.36089197  0.69353785    -0.03000
C537        C  0.07216166  0.36126725  0.57032715    -0.09700
C538        C  0.03553158  0.35642792  0.55856110     0.06500
C539        C  0.50073660  0.35071586  0.57334563    -0.03400
C540        C  0.00303421  0.34890690  0.59933667    -0.07900
C541        C  0.03919774  0.35198759  0.61102032     0.05600
C542        C  0.07408297  0.35841741  0.59611176    -0.02900
Br543      Br  0.12355330  0.35859736  0.60913495    -0.02600
H544        H  0.09886079  0.36502896  0.55926384     0.09500
H545        H  0.47583659  0.34386102  0.61045152     0.07600
Br546      Br  0.44971783  0.34543537  0.55917158    -0.03000
C547        C  0.13423152  0.12440124  0.70767909    -0.09700
C548        C  0.11985697  0.09554441  0.68741981     0.06500
C549        C  0.12191823  0.05763664  0.68935731    -0.03400
C550        C  0.13074468  0.04579815  0.71237857    -0.07900
C551        C  0.13607892  0.07040920  0.73394926     0.05600
C552        C  0.13901133  0.11089801  0.73123200    -0.02900
Br553      Br  0.14386936  0.14709584  0.75881525    -0.02600
H554        H  0.13324592  0.15402196  0.70634039     0.09500
H555        H  0.13053304  0.01560917  0.71361915     0.07600
Br556      Br  0.10745974  0.01806571  0.66223704    -0.03000
C557        C  0.42500421  0.04433160  0.71650101    -0.09700
C558        C  0.44155645  0.07149321  0.73743413     0.06500
C559        C  0.47935804  0.11153415  0.73470897    -0.03400
C560        C  0.00014459  0.12175447  0.71185074    -0.07900
C561        C  0.48622507  0.09304832  0.69180744     0.05600
C562        C  0.44732682  0.05427906  0.69403975    -0.02900
Br563      Br  0.42623285  0.01129083  0.66833833    -0.02600
H564        H  0.39543757  0.01406115  0.71788869     0.09500
H565        H  0.03058689  0.15134992  0.71035262     0.07600
Br566      Br  0.50448024  0.15264847  0.76128129    -0.03000
C567        C  0.04321262  0.12277872  0.59366841    -0.09700
C568        C  0.04361675  0.08922284  0.60681240     0.06500
C569        C  0.03970310  0.05346274  0.59355050    -0.03400
C570        C  0.03790057  0.05294582  0.56749298    -0.07900
C571        C  0.03857342  0.08705351  0.55443518     0.05600
C572        C  0.04054256  0.12180561  0.56767421    -0.02900
Br573      Br  0.54558248  0.17165227  0.55059210    -0.02600
H574        H  0.04552691  0.15009262  0.60366054     0.09500
H575        H  0.03560007  0.02571814  0.55739993     0.07600
Br576      Br  0.03381270  0.00345287  0.61012636    -0.03000
C577        C  0.04890128  0.59332451  0.63409504     0.02600
C578        C  0.01687563  0.59463766  0.64840722    -0.13500
C579        C  0.01955854  0.59571618  0.67444327     0.00100
C580        C  0.05373655  0.59553516  0.68577420    -0.12100
C581        C  0.08707898  0.59689722  0.67219752     0.02600
C582        C  0.08459025  0.59524558  0.64606758    -0.11500
H583        H  0.98970163  0.59366511  0.63938355     0.08200
H584        H  0.05391188  0.59339799  0.70594180     0.05700
H585        H  0.10976585  0.59524214  0.63518448     0.05600
C586        C  0.03931438  0.84639503  0.63840773     0.02600
C587        C  0.07459557  0.87474683  0.65317023    -0.13500
C588        C  0.07783770  0.86334991  0.67764668     0.00100
C589        C  0.04584754  0.82459453  0.68729537    -0.12100
C590        C  0.00697918  0.80189615  0.67504135     0.02600
C591        C  0.00381017  0.81145669  0.65011823    -0.11500
H592        H  0.09911708  0.90532098  0.64573077     0.08200
H593        H  0.04770615  0.81707427  0.70670065     0.05700
H594        H  0.47385407  0.79203833  0.64026274     0.05600
C595        C  0.43573580  0.94079836  0.81396783     0.02600
C596        C  0.41343786  0.89537066  0.81346631    -0.13500
C597        C  0.43523942  0.87212904  0.81377404     0.00100
C598        C  0.48049005  0.89544486  0.81498807    -0.12100
C599        C  0.50376151  0.94109078  0.81483144     0.02600
C600        C  0.48079725  0.96319203  0.81401130    -0.11500
H601        H  0.37887967  0.87799602  0.81313043     0.08200
H602        H  0.49770088  0.87803106  0.81553775     0.05700
H603        H  0.49810285  0.99808006  0.81433872     0.05600
O604        O  0.29987014  0.53172648  0.80956487    -0.85900
O605        O  0.37656150  0.59310933  0.79036062    -0.82900
C606        C  0.38790212  0.61022758  0.81131050     0.97600
O607        O  0.40050054  0.59344402  0.82732603    -0.83000
O608        O  0.40135660  0.52626602  0.85259506    -0.85600
C609        C  0.36746582  0.50310637  0.86497252     1.02100
O610        O  0.33239473  0.97984529  0.85388322    -0.78400
O611        O  0.27127087  0.96308832  0.81719824    -0.78500
C612        C  0.26804371  0.49656712  0.81601155     1.02100
O613        O  0.29527258  0.97456302  0.77173390    -0.85900
O614        O  0.37699791  0.53222802  0.75905609    -0.82900
C615        C  0.41651866  0.55742961  0.76084591     0.97600
O616        O  0.43373916  0.57148907  0.78213246    -0.83000
O617        O  0.43043969  0.50387740  0.80829337    -0.85600
C618        C  0.41202390  0.96485827  0.81500829     1.02100
O619        O  0.37396049  0.94631307  0.82317775    -0.78400
O620        O  0.32107775  0.93592249  0.78468499    -0.78500
C621        C  0.30740993  0.94835859  0.76688267     1.02000
Cr622      Cr  0.33829960  0.53138500  0.78433990     1.93700
Cr623      Cr  0.41281168  0.54654936  0.81696185     1.93200
Cr624      Cr  0.32653831  0.95975096  0.81893319     1.39100
O625        O  0.35972290  0.51236294  0.80708883    -1.23600
O626        O  0.34701563  0.64262065  0.80944268    -0.85900
O627        O  0.28551079  0.65575068  0.78752864    -0.82900
C628        C  0.26373671  0.65205850  0.80647029     0.97600
O629        O  0.27910299  0.68162759  0.82263724    -0.83000
O630        O  0.34546878  0.74898218  0.84922540    -0.85600
C631        C  0.36893167  0.73944464  0.86209263     1.02100
O632        O  0.39399777  0.72874543  0.85225708    -0.78400
O633        O  0.41497801  0.68558917  0.81677098    -0.78500
C634        C  0.38287429  0.64771206  0.81527744     1.02100
O635        O  0.40462748  0.69541582  0.77160289    -0.85900
O636        O  0.34584908  0.71628429  0.75611573    -0.82900
C637        C  0.32156899  0.73187895  0.75668768     0.97600
O638        O  0.30771310  0.73742062  0.77747941    -0.83000
O639        O  0.37276602  0.80294302  0.80563865    -0.85600
C640        C  0.41079101  0.82369670  0.81369387     1.02100
O641        O  0.42847780  0.80373844  0.82217201    -0.78400
O642        O  0.44053749  0.76122305  0.78366341    -0.78500
C643        C  0.43031162  0.73389614  0.76645943     1.02000
Cr644      Cr  0.34690514  0.68022981  0.78299787     1.93700
Cr645      Cr  0.32883350  0.74125007  0.81318037     1.93200
Cr646      Cr  0.41576636  0.74302772  0.81781764     1.39100
O647        O  0.36366525  0.72198268  0.80504694    -1.23600
O648        O  0.21422277  0.59004054  0.78710953    -0.85900
O649        O  0.23012927  0.53132799  0.80954116    -0.82900
C650        C  0.22742352  0.49675932  0.81666765     0.97600
O651        O  0.19085415  0.96381373  0.81966082    -0.83000
O652        O  0.14881128  0.98707876  0.85503936    -0.85600
C653        C  0.13384923  0.50902025  0.86434842     1.02100
O654        O  0.12361166  0.53132212  0.85077380    -0.78400
O655        O  0.19330311  0.59713377  0.82362346    -0.78500
C656        C  0.22138181  0.61172418  0.80660602     1.02100
O657        O  0.15272918  0.52606389  0.75780450    -0.85900
O658        O  0.17658717  0.96889724  0.77396235    -0.82900
C659        C  0.13843087  0.94012132  0.77109988     0.97600
O660        O  0.11264392  0.93215239  0.78868894    -0.83000
O661        O  0.07181854  0.94883424  0.82564442    -0.85600
C662        C  0.05193006  0.96596102  0.81592097     1.02100
O663        O  0.07240367  0.50379976  0.80699439    -0.78400
O664        O  0.13738254  0.56914505  0.77884210    -0.78500
C665        C  0.14138750  0.55394621  0.75812085     1.02000
Cr666      Cr  0.19086222  0.52777751  0.78382336     1.93700
Cr667      Cr  0.13260168  0.96151752  0.82138039     1.93200
Cr668      Cr  0.13311930  0.54798017  0.81462389     1.39100
O669        O  0.15134182  0.51210181  0.80678168    -1.23600
C670        C  0.30795135  0.84825507  0.63378459     0.02600
C671        C  0.29876782  0.80910814  0.64551912    -0.13500
C672        C  0.29734881  0.80612497  0.67161948     0.00100
C673        C  0.30509668  0.84184042  0.68557035    -0.12100
C674        C  0.31584967  0.88104638  0.67473281     0.02600
C675        C  0.31606694  0.88426872  0.64867158    -0.11500
H676        H  0.29322060  0.78153285  0.63446222     0.08200
H677        H  0.30436845  0.83958286  0.70575087     0.05700
H678        H  0.32288351  0.91437199  0.64011469     0.05600
C679        C  0.21458039  0.92793070  0.30161067     0.02600
C680        C  0.25231983  0.93299020  0.31235268    -0.13500
C681        C  0.26326017  0.94922315  0.33657424     0.00100
C682        C  0.23912551  0.96437070  0.34836509    -0.12100
C683        C  0.19634318  0.94685909  0.34151688     0.02600
C684        C  0.18446064  0.93022678  0.31728474    -0.11500
H685        H  0.27242181  0.92376051  0.30231105     0.08200
H686        H  0.24893717  0.97833720  0.36680565     0.05700
H687        H  0.15206068  0.91749390  0.31088357     0.05600
C688        C  0.46024111  0.68289153  0.30473383     0.02600
C689        C  0.44379500  0.64534240  0.31951708    -0.13500
C690        C  0.44096640  0.64825154  0.34549194     0.00100
C691        C  0.45467357  0.68829941  0.35608052    -0.12100
C692        C  0.47258340  0.72569248  0.34195923     0.02600
C693        C  0.47511465  0.72340045  0.31607348    -0.11500
H694        H  0.43425177  0.61449171  0.31093972     0.08200
H695        H  0.45465610  0.69124929  0.37619697     0.05700
H696        H  0.48878447  0.75251228  0.30496374     0.05600
C697        C  0.10949902  0.79117858  0.48272993     0.02600
C698        C  0.15469695  0.81281571  0.48080272    -0.13500
C699        C  0.17679683  0.78977974  0.47769250     0.00100
C700        C  0.15275602  0.74449587  0.47644546    -0.12100
C701        C  0.10791901  0.72174849  0.47893044     0.02600
C702        C  0.08675631  0.74550748  0.48215048    -0.11500
H703        H  0.17270888  0.84762651  0.48178974     0.08200
H704        H  0.16935755  0.72666865  0.47425584     0.05700
H705        H  0.05230580  0.72836831  0.48373322     0.05600
O706        O  0.46409705  0.87282524  0.47502927    -0.85900
O707        O  0.04021483  0.93874594  0.45592025    -0.82900
C708        C  0.05978557  0.96163591  0.47425847     0.97600
O709        O  0.07231156  0.94635926  0.49129093    -0.83000
O710        O  0.06946076  0.87940715  0.51937385    -0.85600
C711        C  0.03491631  0.85570119  0.53112178     1.02100
O712        O  0.50082045  0.82860218  0.51985901    -0.78400
O713        O  0.44099947  0.80453850  0.48162101    -0.78500
C714        C  0.43361692  0.83556631  0.47957506     1.02100
O715        O  0.46750102  0.81831754  0.43793335    -0.85900
O716        O  0.04735906  0.88180473  0.42502271    -0.82900
C717        C  0.08713295  0.90493972  0.42762694     0.97600
O718        O  0.10407900  0.91887596  0.44889658    -0.83000
O719        O  0.10275239  0.85443042  0.47750033    -0.85600
C720        C  0.08555519  0.81561118  0.48450203     1.02100
O721        O  0.04752977  0.79677121  0.49252209    -0.78400
O722        O  0.49804987  0.78420695  0.45130126    -0.78500
C723        C  0.48277106  0.79465589  0.43334912     1.02000
Cr724      Cr  0.00635807  0.87691219  0.45041231     1.93700
Cr725      Cr  0.08290105  0.89689144  0.48365383     1.93200
Cr726      Cr  0.49891598  0.80742400  0.48550607     1.39100
O727        O  0.03001898  0.86086036  0.47361292    -1.23600
O728        O  0.05989692  0.01609481  0.45170865    -0.85900
O729        O  0.47773990  0.99036728  0.46910157    -0.82900
C730        C  0.44538462  0.99224120  0.47602965     0.97600
O731        O  0.44765313  0.52919970  0.47815563    -0.83000
O732        O  0.50521814  0.57747806  0.51524053    -0.85600
C733        C  0.03898244  0.58700497  0.52698926     1.02100
O734        O  0.07370287  0.59807175  0.51583206    -0.78400
O735        O  0.07589825  0.53262077  0.49005860    -0.78500
C736        C  0.06675372  0.00584639  0.47266019     1.02100
O737        O  0.05642275  0.57723061  0.42229857    -0.85900
O738        O  0.47103690  0.54109254  0.43150353    -0.82900
C739        C  0.47297643  0.57653246  0.42872140     0.97600
O740        O  0.49007962  0.60485728  0.44546875    -0.83000
O741        O  0.04445083  0.65216591  0.48390325    -0.85600
C742        C  0.08404897  0.67325456  0.47866215     1.02100
O743        O  0.10423884  0.65382408  0.47363405    -0.78400
O744        O  0.11200940  0.59328697  0.44604837    -0.78500
C745        C  0.09581058  0.59198848  0.42471557     1.02000
Cr746      Cr  0.51769329  0.53422653  0.44544467     1.93700
Cr747      Cr  0.49967735  0.58993271  0.47994578     1.93200
Cr748      Cr  0.08761726  0.59284318  0.48056234     1.39100
O749        O  0.03491450  0.57271999  0.46912925    -1.23600
O750        O  0.40657833  0.91849202  0.47030889    -0.85900
O751        O  0.38624489  0.83906202  0.45248260    -0.82900
C752        C  0.39083032  0.82843993  0.47392283     0.97600
O753        O  0.36052348  0.81627503  0.48930565    -0.83000
O754        O  0.29380258  0.81867874  0.51340653    -0.85600
C755        C  0.30824568  0.85360612  0.52555526     1.02100
O756        O  0.32318440  0.88940311  0.51445723    -0.78400
O757        O  0.36868030  0.94945319  0.47737746    -0.78500
C758        C  0.40473280  0.95135082  0.47618156     1.02100
O759        O  0.35641726  0.92577014  0.43179232    -0.85900
O760        O  0.32767499  0.84182926  0.42008063    -0.82900
C761        C  0.31322910  0.80200311  0.42200099     0.97600
O762        O  0.30711759  0.78426990  0.44344823    -0.83000
O763        O  0.24330921  0.79213208  0.46899743    -0.85600
C764        C  0.22488329  0.81215874  0.47675920     1.02100
O765        O  0.24694896  0.85060427  0.48459082    -0.78400
O766        O  0.29231779  0.90325300  0.44528470    -0.78500
C767        C  0.31924555  0.91837106  0.42781910     1.02000
Cr768      Cr  0.36641909  0.88007411  0.44539594     1.93700
Cr769      Cr  0.30275847  0.80639077  0.47799837     1.93200
Cr770      Cr  0.30901042  0.89591454  0.47961939     1.39100
O771        O  0.32530290  0.86032066  0.46785359    -1.23600
C772        C  0.22406347  0.67027861  0.29821688     0.02600
C773        C  0.26164161  0.70100634  0.31045606    -0.13500
C774        C  0.26583550  0.69765957  0.33628896     0.00100
C775        C  0.23478063  0.66165414  0.34887454    -0.12100
C776        C  0.19608598  0.63367770  0.33771517     0.02600
C777        C  0.19055967  0.63752527  0.31223059    -0.11500
H778        H  0.28582632  0.72866736  0.30034845     0.08200
H779        H  0.23722542  0.65985747  0.36894792     0.05700
H780        H  0.16011814  0.61612553  0.30357559     0.05600
C781        C  0.36912624  0.00227500  0.97335412     0.02600
C782        C  0.35001130  0.96372922  0.98752404    -0.13500
C783        C  0.34967299  0.96590011  0.01364582     0.00100
C784        C  0.36497214  0.00575513  0.02492487    -0.12100
C785        C  0.38620602  0.54303071  0.01197689     0.02600
C786        C  0.38897195  0.54184118  0.98596723    -0.11500
H787        H  0.33597287  0.93271066  0.97834154     0.08200
H788        H  0.36244201  0.00719501  0.04499761     0.05700
H789        H  0.40625198  0.57162897  0.97558932     0.05600
C790        C  0.36596896  0.75706928  0.96828207     0.02600
C791        C  0.38907544  0.74400463  0.98340609    -0.13500
C792        C  0.38823090  0.74809528  0.00923548     0.00100
C793        C  0.36681575  0.76732758  0.01957053    -0.12100
C794        C  0.34101699  0.77745000  0.00521723     0.02600
C795        C  0.34135153  0.77321755  0.97920753    -0.11500
H796        H  0.40630778  0.72961833  0.97520038     0.08200
H797        H  0.36681276  0.77007311  0.03968754     0.05700
H798        H  0.32182277  0.78111935  0.96762551     0.05600
C799        C  0.26371837  0.60672627  0.14182710     0.02600
C800        C  0.24176003  0.56115709  0.14228615    -0.13500
C801        C  0.26375971  0.53808377  0.14476776     0.00100
C802        C  0.30870943  0.56183342  0.14747392    -0.12100
C803        C  0.33167142  0.60742042  0.14694847     0.02600
C804        C  0.30868858  0.62930588  0.14367601    -0.11500
H805        H  0.20729441  0.54360367  0.14085202     0.08200
H806        H  0.32604700  0.54474478  0.14961413     0.05700
H807        H  0.32574798  0.66419406  0.14351558     0.05600
O808        O  0.04150547  0.75962953  0.12011814    -0.85900
O809        O  0.05879566  0.69963278  0.14115268    -0.82900
C810        C  0.05574995  0.66443108  0.14749025     0.97600
O811        O  0.01891432  0.63087520  0.14985034    -0.83000
O812        O  0.97752994  0.65077797  0.18706182    -0.85600
C813        C  0.96716542  0.67565680  0.19769403     1.02100
O814        O  0.95679625  0.69915586  0.18537704    -0.78400
O815        O  0.02323175  0.76505482  0.15753946    -0.78500
C816        C  0.05031986  0.78023516  0.14007735     1.02100
O817        O  0.97991717  0.69650800  0.09130268    -0.85900
O818        O  0.00402030  0.63930012  0.10518628    -0.82900
C819        C  0.46427876  0.61150155  0.10131773     0.97600
O820        O  0.43906793  0.60031639  0.11952199    -0.83000
O821        O  0.39911457  0.61394996  0.15807343    -0.85600
C822        C  0.37956851  0.63214785  0.14932483     1.02100
O823        O  0.40025919  0.67115248  0.14251073    -0.78400
O824        O  0.46145346  0.73450241  0.11372748    -0.78500
C825        C  0.46235425  0.71704411  0.09315153     1.02000
Cr826      Cr  0.01897657  0.69769966  0.11618904     1.93700
Cr827      Cr  0.45975996  0.62671634  0.15301774     1.93200
Cr828      Cr  0.46137682  0.71448546  0.14921788     1.39100
O829        O  0.98004302  0.68065664  0.13977187    -1.23600
O830        O  0.17405142  0.80814054  0.14180906    -0.85900
O831        O  0.11376548  0.82485617  0.12042861    -0.82900
C832        C  0.09310491  0.81995994  0.13999535     0.97600
O833        O  0.11003545  0.84820857  0.15677712    -0.83000
O834        O  0.17706724  0.91539158  0.18265444    -0.85600
C835        C  0.20106157  0.90585601  0.19487834     1.02100
O836        O  0.22681534  0.89711357  0.18413258    -0.78400
O837        O  0.24251637  0.84980647  0.14911966    -0.78500
C838        C  0.20984887  0.81236908  0.14718198     1.02100
O839        O  0.22991345  0.85586133  0.10283518    -0.85900
O840        O  0.17590470  0.88515956  0.08969523    -0.82900
C841        C  0.15118562  0.90016930  0.09095534     0.97600
O842        O  0.13679856  0.90448043  0.11184675    -0.83000
O843        O  0.20237954  0.96953381  0.13945257    -0.85600
C844        C  0.24156269  0.99048446  0.14523760     1.02100
O845        O  0.26090381  0.97070303  0.15159387    -0.78400
O846        O  0.27141379  0.92188453  0.11445250    -0.78500
C847        C  0.26161592  0.89201456  0.09873655     1.02000
Cr848      Cr  0.17480810  0.84663081  0.11564996     1.93700
Cr849      Cr  0.15934475  0.90788357  0.14698885     1.93200
Cr850      Cr  0.24642412  0.90857471  0.14910228     1.39100
O851        O  0.19387680  0.88858465  0.13752286    -1.23600
O852        O  0.12782719  0.69860915  0.13994159    -0.85900
O853        O  0.20223579  0.75960716  0.12025938    -0.82900
C854        C  0.21470125  0.77532038  0.14143653     0.97600
O855        O  0.22958467  0.75847875  0.15589562    -0.83000
O856        O  0.23380525  0.69121388  0.17810570    -0.85600
C857        C  0.20110796  0.67103618  0.19174160     1.02100
O858        O  0.16425566  0.64996464  0.18231674    -0.78400
O859        O  0.09895408  0.62987695  0.14752743    -0.78500
C860        C  0.09604594  0.66377544  0.14648786     1.02100
O861        O  0.11945664  0.64128456  0.10048108    -0.85900
O862        O  0.20138671  0.70080199  0.08626946    -0.82900
C863        C  0.24041978  0.72893013  0.08752070     0.97600
O864        O  0.25893432  0.73971042  0.10864383    -0.83000
O865        O  0.25711351  0.66876389  0.13248942    -0.85600
C866        C  0.23961780  0.63071965  0.14116664     1.02100
O867        O  0.20222801  0.61329471  0.15046200    -0.78400
O868        O  0.14317141  0.60004105  0.11404214    -0.78500
C869        C  0.12466573  0.60956059  0.09750062     1.02000
Cr870      Cr  0.16406536  0.69829123  0.11333084     1.93700
Cr871      Cr  0.24110663  0.71227007  0.14304400     1.93200
Cr872      Cr  0.15437161  0.62686828  0.14773695     1.39100
O873        O  0.18705998  0.67860529  0.13455126    -1.23600
C874        C  0.10133314  0.98984723  0.97005522     0.02600
C875        C  0.10134371  0.95497427  0.98207014    -0.13500
C876        C  0.09180371  0.94790122  0.00752826     0.00100
C877        C  0.08205400  0.97527122  0.02062376    -0.12100
C878        C  0.08328306  0.51070145  0.00958000     0.02600
C879        C  0.09135118  0.51737671  0.98390589    -0.11500
H880        H  0.11028825  0.93459534  0.97193929     0.08200
H881        H  0.07818333  0.97168275  0.04069552     0.05700
H882        H  0.09481269  0.54623052  0.97527192     0.05600
C883        C  0.05844525  0.53460525  0.04571768    -0.09700
C884        C  0.08979992  0.54495355  0.02724157     0.06500
C885        C  0.13176741  0.57884171  0.03172739    -0.03400
C886        C  0.14218502  0.59942942  0.05481487    -0.07900
C887        C  0.11170540  0.58643723  0.07380786     0.05600
C888        C  0.06932919  0.55456727  0.06906314    -0.02900
Br889      Br  0.02637376  0.53526320  0.09451176    -0.02600
H890        H  0.02643077  0.50779249  0.04286402     0.09500
H891        H  0.17474730  0.62463007  0.05830329     0.07600
Br892      Br  0.17778942  0.59404977  0.00867615    -0.03000
C893        C  0.09158678  0.88913328  0.06397498    -0.09700
C894        C  0.13567257  0.90807893  0.06751746     0.06500
C895        C  0.16376795  0.93115265  0.04787830    -0.03400
C896        C  0.14758187  0.93749487  0.02572881    -0.07900
C897        C  0.10372404  0.92191101  0.02304668     0.05600
C898        C  0.07544229  0.89540402  0.04180515    -0.02900
Br899      Br  0.01493210  0.87215224  0.03911917    -0.02600
H900        H  0.06967995  0.87000973  0.07865730     0.09500
H901        H  0.16974860  0.95898091  0.01181649     0.07600
Br902      Br  0.22465825  0.95995282  0.05160471    -0.03000
C903        C  0.24396671  0.73242469  0.04124484    -0.09700
C904        C  0.26303396  0.75098878  0.06420567     0.06500
C905        C  0.30200069  0.79072489  0.06387025    -0.03400
C906        C  0.32299629  0.80742014  0.04118640    -0.07900
C907        C  0.30857194  0.78257338  0.01929815     0.05600
C908        C  0.26619789  0.74812579  0.01888756    -0.02900
Br909      Br  0.23908248  0.71734183  0.98903814    -0.02600
H910        H  0.21267255  0.70380654  0.04065175     0.09500
H911        H  0.35488399  0.83527126  0.04158583     0.07600
Br912      Br  0.33089432  0.82213494  0.09334943    -0.03000
C913        C  0.45129185  0.75068427  0.02856675    -0.09700
C914        C  0.40684764  0.73087188  0.02684347     0.06500
C915        C  0.38101881  0.70332428  0.04617556    -0.03400
C916        C  0.39979745  0.70039686  0.06807134    -0.07900
C917        C  0.44407042  0.72321313  0.07059473     0.05600
C918        C  0.47004812  0.74628269  0.05023197    -0.02900
Br919      Br  0.02977130  0.77518108  0.05102300    -0.02600
H920        H  0.47134121  0.77168837  0.01380381     0.09500
H921        H  0.37983428  0.68023234  0.08314668     0.07600
Br922      Br  0.31972384  0.67169180  0.04424887    -0.03000
C923        C  0.28747726  0.90023592  0.02996390    -0.09700
C924        C  0.33146659  0.92857609  0.03080776     0.06500
C925        C  0.35309769  0.93272065  0.05349357    -0.03400
C926        C  0.33003988  0.92028732  0.07575376    -0.07900
C927        C  0.28550082  0.89838116  0.07532421     0.05600
C928        C  0.26442462  0.88370463  0.05206866    -0.02900
Br929      Br  0.20417102  0.84495494  0.04877095    -0.02600
H930        H  0.27041946  0.89494939  0.01258406     0.09500
H931        H  0.34686920  0.92888616  0.09335186     0.07600
Br932      Br  0.41430650  0.96442724  0.05535724    -0.03000
C933        C  0.45412320  0.59455430  0.03088612    -0.09700
C934        C  0.41090784  0.58142778  0.02769023     0.06500
C935        C  0.38917469  0.58812560  0.04742064    -0.03400
C936        C  0.40699207  0.59723748  0.07120361    -0.07900
C937        C  0.44792872  0.60335972  0.07540363     0.05600
C938        C  0.47303070  0.60617188  0.05448229    -0.02900
Br939      Br  0.03348781  0.62470148  0.05648234    -0.02600
H940        H  0.47170913  0.59063775  0.01576073     0.09500
H941        H  0.38823348  0.59853101  0.08655773     0.07600
Br942      Br  0.33101489  0.57434645  0.04393240    -0.03000
C943        C  0.24528026  0.66622753  0.25488201    -0.09700
C944        C  0.21896776  0.67311574  0.27105964     0.06500
C945        C  0.18688207  0.67992729  0.26102944    -0.03400
C946        C  0.18089301  0.67859649  0.23516781    -0.07900
C947        C  0.20701860  0.67123054  0.21898774     0.05600
C948        C  0.23949250  0.66507289  0.22910852    -0.02900
Br949      Br  0.27473807  0.65151219  0.20876858    -0.02600
H950        H  0.26967972  0.66044499  0.26239164     0.09500
H951        H  0.15631412  0.68409633  0.22766443     0.07600
Br952      Br  0.15197920  0.69318544  0.28184639    -0.03000
C953        C  0.31386373  0.72664880  0.37247035    -0.09700
C954        C  0.29314492  0.73445957  0.35266809     0.06500
C955        C  0.28384818  0.76800645  0.35521765    -0.03400
C956        C  0.29149592  0.78977850  0.37782094    -0.07900
C957        C  0.30677000  0.77792697  0.39858551     0.05600
C958        C  0.31963337  0.74714452  0.39550436    -0.02900
Br959      Br  0.34435363  0.73109119  0.42198918    -0.02600
H960        H  0.32087150  0.70072733  0.37092928     0.09500
H961        H  0.28334150  0.81480382  0.37950367     0.07600
Br962      Br  0.25417715  0.78115209  0.33025530    -0.03000
C963        C  0.13807310  0.63359732  0.36053676    -0.09700
C964        C  0.16039271  0.61194336  0.35524549     0.06500
C965        C  0.16094900  0.58340800  0.37305744    -0.03400
C966        C  0.14076699  0.57817624  0.39602401    -0.07900
C967        C  0.12081164  0.60190200  0.40177645     0.05600
C968        C  0.11914037  0.62946421  0.38378282    -0.02900
Br969      Br  0.09577551  0.66583023  0.39123328    -0.02600
H970        H  0.13949031  0.65747772  0.34762005     0.09500
H971        H  0.14113892  0.55598113  0.40954651     0.07600
Br972      Br  0.19395555  0.55578012  0.36798248    -0.03000
C973        C  0.45991998  0.59557955  0.36102549    -0.09700
C974        C  0.43376262  0.61369694  0.36312862     0.06500
C975        C  0.41241538  0.60947827  0.38595492    -0.03400
C976        C  0.42526709  0.59703409  0.40735788    -0.07900
C977        C  0.45576270  0.58419494  0.40575759     0.05600
C978        C  0.46945555  0.57904166  0.38195410    -0.02900
Br979      Br  0.50295740  0.55218536  0.37642806    -0.02600
H980        H  0.47541266  0.59701685  0.34349346     0.09500
H981        H  0.41189512  0.59791571  0.42525445     0.07600
Br982      Br  0.36865669  0.62447816  0.38901634    -0.03000
C983        C  0.45770726  0.78575323  0.38972308    -0.09700
C984        C  0.48643224  0.78489422  0.40701596     0.06500
C985        C  0.52074642  0.78061932  0.39797934    -0.03400
C986        C  0.52290451  0.77293605  0.37262495    -0.07900
C987        C  0.48926714  0.76540225  0.35655461     0.05600
C988        C  0.45913844  0.77633288  0.36465395    -0.02900
Br989      Br  0.41442669  0.77020804  0.34303972    -0.02600
H990        H  0.43262290  0.79163634  0.39588317     0.09500
H991        H  0.04558127  0.76369305  0.36675798     0.07600
Br992      Br  0.06319275  0.78081605  0.41929100    -0.03000
C993        C  0.42629896  0.67114522  0.26337983    -0.09700
C994        C  0.46220178  0.67989469  0.27746042     0.06500
C995        C  0.49927680  0.68594118  0.26533526    -0.03400
C996        C  0.50009040  0.68349197  0.23929885    -0.07900
C997        C  0.46442135  0.67575407  0.22512900     0.05600
C998        C  0.42715665  0.66906074  0.23742031    -0.02900
Br999      Br  0.37576025  0.65444087  0.21970873    -0.02600
H1000       H  0.39749480  0.66593219  0.27264158     0.09500
H1001       H  0.52882109  0.68841612  0.23008828     0.07600
Br1002     Br  0.54929897  0.69782705  0.28371517    -0.03000
C1003       C  0.33599097  0.96005931  0.38811622    -0.09700
C1004       C  0.30743212  0.92401641  0.40238683     0.06500
C1005       C  0.26989978  0.89149688  0.39105110    -0.03400
C1006       C  0.26016176  0.89694812  0.36667197    -0.07900
C1007       C  0.28581195  0.93550774  0.35374567     0.05600
C1008       C  0.32492167  0.96600837  0.36402587    -0.02900
Br1009     Br  0.36194289  0.01655288  0.34552618    -0.02600
H1010       H  0.36600649  0.98437842  0.39604587     0.09500
H1011       H  0.22969612  0.87319391  0.35890570     0.07600
Br1012     Br  0.22985437  0.83945029  0.40796384    -0.03000
C1013       C  0.10325406  0.92941277  0.38343517    -0.09700
C1014       C  0.11413294  0.91567777  0.40539271     0.06500
C1015       C  0.14959032  0.91003063  0.40535265    -0.03400
C1016       C  0.17348664  0.91814978  0.38390396    -0.07900
C1017       C  0.16504685  0.93473294  0.36225735     0.05600
C1018       C  0.12871009  0.93945304  0.36192263    -0.02900
Br1019     Br  0.11330772  0.96098355  0.33350006    -0.02600
H1020       H  0.07551838  0.93327248  0.38321815     0.09500
H1021       H  0.19959216  0.91202672  0.38450268     0.07600
Br1022     Br  0.16704339  0.89002519  0.43353522    -0.03000
C1023       C  0.19302486  0.93837958  0.23368077    -0.09700
C1024       C  0.20041357  0.90744572  0.22240907     0.06500
C1025       C  0.20904666  0.88068780  0.23766680    -0.03400
C1026       C  0.21189916  0.88659098  0.26352489    -0.07900
C1027       C  0.20622304  0.91878877  0.27465368     0.05600
C1028       C  0.19619429  0.94450946  0.25942718    -0.02900
Br1029     Br  0.19080962  0.99160837  0.27216320    -0.02600
H1030       H  0.18668582  0.95942758  0.22228713     0.09500
H1031       H  0.21903297  0.86619851  0.27498647     0.07600
Br1032     Br  0.21588892  0.83472926  0.22453653    -0.03000
C1033       C  0.34280761  0.88352141  0.56656154    -0.09700
C1034       C  0.30734916  0.85240286  0.55321167     0.06500
C1035       C  0.27187820  0.82062387  0.56660137    -0.03400
C1036       C  0.27273712  0.82009698  0.59269447    -0.07900
C1037       C  0.30840154  0.85087526  0.60607031     0.05600
C1038       C  0.34379012  0.88280039  0.59267235    -0.02900
Br1039     Br  0.39558139  0.92426595  0.60880040    -0.02600
H1040       H  0.37044460  0.90789974  0.55659137     0.09500
H1041       H  0.24510968  0.79567285  0.60264970     0.07600
Br1042     Br  0.22029520  0.77872315  0.55041790    -0.03000
C1043       C  0.07983068  0.99358098  0.92687264    -0.09700
C1044       C  0.10946375  0.49650770  0.94315023     0.06500
C1045       C  0.14976732  0.50631728  0.93383329    -0.03400
C1046       C  0.15758669  0.51099824  0.90812986    -0.07900
C1047       C  0.12596033  0.50684448  0.89145846     0.05600
C1048       C  0.08586652  0.49773431  0.90092619    -0.02900
Br1049     Br  0.04001284  0.98777808  0.88030559    -0.02600
H1050       H  0.04868472  0.98542886  0.93402318     0.09500
H1051       H  0.18848576  0.51803368  0.90113980     0.07600
Br1052     Br  0.19545991  0.51505332  0.95552814    -0.03000
C1053       C  0.33436048  0.71186829  0.90310721    -0.09700
C1054       C  0.36864265  0.74335833  0.88924717     0.06500
C1055       C  0.40195771  0.77916029  0.90145625    -0.03400
C1056       C  0.40046120  0.78321192  0.92725807    -0.07900
C1057       C  0.36612867  0.75186526  0.94112936     0.05600
C1058       C  0.33316036  0.71566678  0.92899389    -0.02900
Br1059     Br  0.28687675  0.67010708  0.94711776    -0.02600
H1060       H  0.30876931  0.68415657  0.89381136     0.09500
H1061       H  0.42605973  0.81095177  0.93653508     0.07600
Br1062     Br  0.44942751  0.82393886  0.88357741    -0.03000
C1063       C  0.33384143  0.74706077  0.71113420    -0.09700
C1064       C  0.30874794  0.74194832  0.73240900     0.06500
C1065       C  0.27229088  0.74609960  0.72954144    -0.03400
C1066       C  0.26257661  0.75615313  0.70620882    -0.07900
C1067       C  0.29194965  0.76888147  0.68639223     0.05600
C1068       C  0.32641404  0.76150002  0.68850230    -0.02900
Br1069     Br  0.36798385  0.77705736  0.66248044    -0.02600
H1070       H  0.36146638  0.74311501  0.71251191     0.09500
H1071       H  0.23616341  0.76214301  0.70490666     0.07600
Br1072     Br  0.23779192  0.74510909  0.75691359    -0.03000
C1073       C  0.33011408  0.48459974  0.90624139    -0.09700
C1074       C  0.36879724  0.50262862  0.89284239     0.06500
C1075       C  0.40733391  0.51897167  0.90656202    -0.03400
C1076       C  0.40638000  0.51827203  0.93267934    -0.07900
C1077       C  0.36775871  0.50057185  0.94580396     0.05600
C1078       C  0.32933765  0.48334518  0.93233420    -0.02900
Br1079     Br  0.27500440  0.45968356  0.94870526    -0.02600
H1080       H  0.30008704  0.47171473  0.89642095     0.09500
H1081       H  0.43608018  0.53119799  0.94287667     0.07600
Br1082     Br  0.46251739  0.54085756  0.89143041    -0.03000
C1083       C  0.29580579  0.92916149  0.69651133    -0.09700
C1084       C  0.32595856  0.91625812  0.69255028     0.06500
C1085       C  0.35496999  0.92263917  0.71181773    -0.03400
C1086       C  0.34714399  0.93147285  0.73585848    -0.07900
C1087       C  0.31355642  0.93920802  0.74073730     0.05600
C1088       C  0.29083908  0.94260708  0.72023135    -0.02900
Br1089     Br  0.25275088  0.96476503  0.72312538    -0.02600
H1090       H  0.27408282  0.92581192  0.68171092     0.09500
H1091       H  0.36780901  0.93265716  0.75076579     0.07600
Br1092     Br  0.40163682  0.91243608  0.70686810    -0.03000
C1093       C  0.45848773  0.73536895  0.69787318    -0.09700
C1094       C  0.46995710  0.77762403  0.69163764     0.06500
C1095       C  0.46073157  0.80187087  0.70854624    -0.03400
C1096       C  0.44920950  0.78756880  0.73294946    -0.07900
C1097       C  0.44234007  0.74709182  0.74024143     0.05600
C1098       C  0.44258528  0.71918042  0.72164200    -0.02900
Br1099     Br  0.42206572  0.65925730  0.72707944    -0.02600
H1100       H  0.46450472  0.71596791  0.68484895     0.09500
H1101       H  0.44540209  0.80815561  0.74621024     0.07600
Br1102     Br  0.96957258  0.85757055  0.69981870    -0.03000
C1103       C  0.08540075  0.91550916  0.70854841    -0.09700
C1104       C  0.10451407  0.89484584  0.69651376     0.06500
C1105       C  0.13584528  0.89001795  0.70906799    -0.03400
C1106       C  0.14612266  0.90409202  0.73372008    -0.07900
C1107       C  0.12415802  0.92128555  0.74634430     0.05600
C1108       C  0.09310335  0.92644868  0.73361711    -0.02900
Br1109     Br  0.05803796  0.94547437  0.74965083    -0.02600
H1110       H  0.06052455  0.91841326  0.69921566     0.09500
H1111       H  0.17007701  0.90008950  0.74340020     0.07600
Br1112     Br  0.16252447  0.86135876  0.69366102    -0.03000
C1113       C  0.07269094  0.86283693  0.57047275    -0.09700
C1114       C  0.03585128  0.85732236  0.55864035     0.06500
C1115       C  0.50088314  0.85126841  0.57330586    -0.03400
C1116       C  0.00316534  0.84963412  0.59937268    -0.07900
C1117       C  0.03950211  0.85324099  0.61112490     0.05600
C1118       C  0.07461885  0.86015765  0.59626664    -0.02900
Br1119     Br  0.12447295  0.86115927  0.60933163    -0.02600
H1120       H  0.09956594  0.86693484  0.55945892     0.09500
H1121       H  0.47626927  0.84537157  0.61043064     0.07600
Br1122     Br  0.45047841  0.84729255  0.55905088    -0.03000
C1123       C  0.13535712  0.62528579  0.70775915    -0.09700
C1124       C  0.12103172  0.59670103  0.68737524     0.06500
C1125       C  0.12284798  0.55863060  0.68918486    -0.03400
C1126       C  0.13137898  0.54640519  0.71218388    -0.07900
C1127       C  0.13661797  0.57077175  0.73385305     0.05600
C1128       C  0.13969898  0.61135342  0.73127927    -0.02900
Br1129     Br  0.14392833  0.64702368  0.75900792    -0.02600
H1130       H  0.13456704  0.65502084  0.70652755     0.09500
H1131       H  0.13098135  0.51610988  0.71332746     0.07600
Br1132     Br  0.10847502  0.51938677  0.66189046    -0.03000
C1133       C  0.42406329  0.54413413  0.71636524    -0.09700
C1134       C  0.44113369  0.57112950  0.73733803     0.06500
C1135       C  0.47927517  0.61085129  0.73457666    -0.03400
C1136       C  0.00033539  0.62263193  0.71139432    -0.07900
C1137       C  0.48553867  0.59206499  0.69163860     0.05600
C1138       C  0.44621744  0.55378165  0.69386091    -0.02900
Br1139     Br  0.42419130  0.51099091  0.66805509    -0.02600
H1140       H  0.39416204  0.51419412  0.71773100     0.09500
H1141       H  0.03050440  0.65252892  0.70990585     0.07600
Br1142     Br  0.50498482  0.65189909  0.76112564    -0.03000
C1143       C  0.04612026  0.62458960  0.59339718    -0.09700
C1144       C  0.04497206  0.59037735  0.60666492     0.06500
C1145       C  0.03916113  0.55372781  0.59357370    -0.03400
C1146       C  0.03675141  0.55276944  0.56752639    -0.07900
C1147       C  0.03891562  0.58747417  0.55432975     0.05600
C1148       C  0.04304096  0.62330273  0.56741881    -0.02900
Br1149     Br  0.54082502  0.66908146  0.55087212    -0.02600
H1150       H  0.04989685  0.65260420  0.60328394     0.09500
H1151       H  0.03296846  0.52482164  0.55755187     0.07600
Br1152     Br  0.03178575  0.50334120  0.61042369    -0.03000
C1153       C  0.54864923  0.09347685  0.63432267     0.02600
C1154       C  0.51659061  0.09471821  0.64864486    -0.13500
C1155       C  0.51925559  0.09571775  0.67468304     0.00100
C1156       C  0.55340802  0.09547420  0.68599759    -0.12100
C1157       C  0.58683867  0.09704231  0.67242165     0.02600
C1158       C  0.58438284  0.09547469  0.64628903    -0.11500
H1159       H  0.48941439  0.09375028  0.63962771     0.08200
H1160       H  0.55353603  0.09320856  0.70616040     0.05700
H1161       H  0.60960436  0.09557605  0.63539981     0.05600
C1162       C  0.53912534  0.34547316  0.63836791     0.02600
C1163       C  0.57432779  0.37380398  0.65319981    -0.13500
C1164       C  0.57745651  0.36236416  0.67769307     0.00100
C1165       C  0.54545468  0.32356013  0.68728024    -0.12100
C1166       C  0.50666013  0.30083692  0.67495036     0.02600
C1167       C  0.50360332  0.31045788  0.65002108    -0.11500
H1168       H  0.59884508  0.40442712  0.64581334     0.08200
H1169       H  0.54721687  0.31600890  0.70669223     0.05700
H1170       H  0.97392413  0.29124791  0.64014950     0.05600
C1171       C  0.93586313  0.44069665  0.81358238     0.02600
C1172       C  0.91355854  0.39526005  0.81299081    -0.13500
C1173       C  0.93537050  0.37200913  0.81323846     0.00100
C1174       C  0.98060263  0.39530829  0.81450194    -0.12100
C1175       C  0.00385873  0.44094341  0.81443817     0.02600
C1176       C  0.98091655  0.46306500  0.81365481    -0.11500
H1177       H  0.87900094  0.37789123  0.81264832     0.08200
H1178       H  0.99781033  0.37788988  0.81503031     0.05700
H1179       H  0.99823525  0.49795137  0.81405269     0.05600
O1180       O  0.79984494  0.03180184  0.80956424    -0.85900
O1181       O  0.87674035  0.09303889  0.79049808    -0.82900
C1182       C  0.88789090  0.11008860  0.81147290     0.97600
O1183       O  0.90028425  0.09322397  0.82755456    -0.83000
O1184       O  0.90097060  0.02596170  0.85285489    -0.85600
C1185       C  0.86703656  0.00267486  0.86517194     1.02100
O1186       O  0.83284726  0.48025764  0.85369157    -0.78400
O1187       O  0.77149427  0.46309458  0.81709506    -0.78500
C1188       C  0.76798685  0.99667531  0.81602634     1.02100
O1189       O  0.79541046  0.47449112  0.77159589    -0.85900
O1190       O  0.87715084  0.03206471  0.75927384    -0.82900
C1191       C  0.91665964  0.05727855  0.76111716     0.97600
O1192       O  0.93377421  0.07134298  0.78242899    -0.83000
O1193       O  0.93026712  0.00370181  0.80860757    -0.85600
C1194       C  0.91220865  0.46482414  0.81469129     1.02100
O1195       O  0.87425001  0.44640882  0.82302354    -0.78400
O1196       O  0.82119753  0.43584548  0.78460220    -0.78500
C1197       C  0.80754028  0.44826337  0.76678499     1.02000
Cr1198     Cr  0.83836530  0.03135412  0.78444608     1.93700
Cr1199     Cr  0.91262830  0.04634897  0.81723500     1.93200
Cr1200     Cr  0.82681676  0.45986049  0.81879887     1.39100
O1201       O  0.85958879  0.01222947  0.80726078    -1.23600
O1202       O  0.84702707  0.14248719  0.80956191    -0.85900
O1203       O  0.78554602  0.15549660  0.78759855    -0.82900
C1204       C  0.76384653  0.15213573  0.80652614     0.97600
O1205       O  0.77933744  0.18192091  0.82257644    -0.83000
O1206       O  0.84618849  0.25001265  0.84882734    -0.85600
C1207       C  0.86914078  0.23995872  0.86182089     1.02100
O1208       O  0.89359055  0.22837154  0.85209160    -0.78400
O1209       O  0.91500477  0.18543246  0.81676408    -0.78500
C1210       C  0.88288134  0.14757327  0.81538608     1.02100
O1211       O  0.90461527  0.19498255  0.77157595    -0.85900
O1212       O  0.84579118  0.21561170  0.75590740    -0.82900
C1213       C  0.82155233  0.23125422  0.75639404     0.97600
O1214       O  0.80771235  0.23695327  0.77714475    -0.83000
O1215       O  0.87307484  0.30283364  0.80488995    -0.85600
C1216       C  0.91095078  0.32357823  0.81315554     1.02100
O1217       O  0.92842871  0.30358664  0.82192485    -0.78400
O1218       O  0.94063984  0.26086257  0.78355873    -0.78500
C1219       C  0.93034488  0.23344480  0.76639110     1.02000
Cr1220     Cr  0.84689489  0.17984789  0.78295856     1.93700
Cr1221     Cr  0.82909417  0.24137937  0.81281780     1.93200
Cr1222     Cr  0.91573635  0.24280878  0.81769837     1.39100
O1223       O  0.86374251  0.22182798  0.80484225    -1.23600
O1224       O  0.71400601  0.09024055  0.78721897    -0.85900
O1225       O  0.73012957  0.03153088  0.80956500    -0.82900
C1226       C  0.72740195  0.99694035  0.81668838     0.97600
O1227       O  0.69099838  0.46377243  0.81964766    -0.83000
O1228       O  0.64890230  0.48725105  0.85496392    -0.85600
C1229       C  0.63402603  0.00908502  0.86455939     1.02100
O1230       O  0.62382444  0.03150781  0.85106332    -0.78400
O1231       O  0.69339795  0.09735406  0.82380949    -0.78500
C1232       C  0.72137249  0.11191687  0.80673119     1.02100
O1233       O  0.65242275  0.02624552  0.75801608    -0.85900
O1234       O  0.67662942  0.46860543  0.77387886    -0.82900
C1235       C  0.63845845  0.43979671  0.77108217     0.97600
O1236       O  0.61273822  0.43192345  0.78869686    -0.83000
O1237       O  0.57192032  0.44885239  0.82553912    -0.85600
C1238       C  0.55205525  0.46594127  0.81572720     1.02100
O1239       O  0.57231554  0.00401689  0.80738312    -0.78400
O1240       O  0.63716832  0.06933381  0.77912200    -0.78500
C1241       C  0.64107546  0.05412409  0.75837613     1.02000
Cr1242     Cr  0.69071168  0.02799280  0.78393920     1.93700
Cr1243     Cr  0.63271972  0.46149081  0.82133244     1.93200
Cr1244     Cr  0.63312017  0.04818742  0.81490385     1.39100
O1245       O  0.65128650  0.01229630  0.80696186    -1.23600
C1246       C  0.80835908  0.34830374  0.63370700     0.02600
C1247       C  0.79929614  0.30915829  0.64537908    -0.13500
C1248       C  0.79797873  0.30611176  0.67146634     0.00100
C1249       C  0.80577557  0.34178269  0.68548007    -0.12100
C1250       C  0.81632213  0.38097306  0.67468794     0.02600
C1251       C  0.81640025  0.38423966  0.64863650    -0.11500
H1252       H  0.79372970  0.28161577  0.63428253     0.08200
H1253       H  0.80511950  0.33945530  0.70565698     0.05700
H1254       H  0.82304292  0.41431691  0.64011933     0.05600
C1255       C  0.71433400  0.42727824  0.30145408     0.02600
C1256       C  0.75202318  0.43225363  0.31224019    -0.13500
C1257       C  0.76295503  0.44851497  0.33646480     0.00100
C1258       C  0.73882637  0.46368413  0.34823533    -0.12100
C1259       C  0.69607898  0.44626457  0.34134940     0.02600
C1260       C  0.68422165  0.42965270  0.31710851    -0.11500
H1261       H  0.77211903  0.42299303  0.30221930     0.08200
H1262       H  0.74860620  0.47763455  0.36668226     0.05700
H1263       H  0.65184447  0.41702591  0.31068705     0.05600
C1264       C  0.95995115  0.18266318  0.30468922     0.02600
C1265       C  0.94364268  0.14514143  0.31949951    -0.13500
C1266       C  0.94088714  0.14808736  0.34548446     0.00100
C1267       C  0.95453421  0.18813297  0.35605336    -0.12100
C1268       C  0.97236848  0.22550453  0.34191925     0.02600
C1269       C  0.97480728  0.22317968  0.31602581    -0.11500
H1270       H  0.93416710  0.11429552  0.31093768     0.08200
H1271       H  0.95455498  0.19110735  0.37617003     0.05700
H1272       H  0.98842228  0.25227950  0.30490760     0.05600
C1273       C  0.60946526  0.29125900  0.48277362     0.02600
C1274       C  0.65466550  0.31288911  0.48084364    -0.13500
C1275       C  0.67676309  0.28983733  0.47779672     0.00100
C1276       C  0.65270915  0.24453927  0.47664355    -0.12100
C1277       C  0.60786467  0.22180638  0.47913237     0.02600
C1278       C  0.58671617  0.24558779  0.48227190    -0.11500
H1279       H  0.67267882  0.34770533  0.48176571     0.08200
H1280       H  0.66930452  0.22669662  0.47450615     0.05700
H1281       H  0.55226525  0.22845918  0.48385082     0.05600
O1282       O  0.96403861  0.37274556  0.47501331    -0.85900
O1283       O  0.54015847  0.43879595  0.45582588    -0.82900
C1284       C  0.55972743  0.46169554  0.47415828     0.97600
O1285       O  0.57224921  0.44642954  0.49119804    -0.83000
O1286       O  0.56934542  0.37945964  0.51932567    -0.85600
C1287       C  0.53481407  0.35564198  0.53106764     1.02100
O1288       O  0.00076729  0.32850893  0.51982754    -0.78400
O1289       O  0.94091380  0.30445558  0.48159499    -0.78500
C1290       C  0.93354545  0.33549262  0.47954984     1.02100
O1291       O  0.96738744  0.31821310  0.43790268    -0.85900
O1292       O  0.54730959  0.38189271  0.42492884    -0.82900
C1293       C  0.58708882  0.40498975  0.42753178     0.97600
O1294       O  0.60404623  0.41889563  0.44880833    -0.83000
O1295       O  0.60271754  0.35450193  0.47748320    -0.85600
C1296       C  0.58550518  0.31567762  0.48447533     1.02100
O1297       O  0.54744223  0.29680531  0.49242863    -0.78400
O1298       O  0.99792914  0.28409240  0.45126829    -0.78500
C1299       C  0.98264044  0.29453567  0.43331793     1.02000
Cr1300     Cr  0.50630554  0.37697660  0.45032313     1.93700
Cr1301     Cr  0.58283470  0.39694858  0.48358839     1.93200
Cr1302     Cr  0.99882643  0.30732401  0.48547335     1.39100
O1303       O  0.52996102  0.36091443  0.47352841    -1.23600
O1304       O  0.55978070  0.51609967  0.45158976    -0.85900
O1305       O  0.97780587  0.49029001  0.46899188    -0.82900
C1306       C  0.94547469  0.49220677  0.47593193     0.97600
O1307       O  0.94771568  0.02913205  0.47823617    -0.83000
O1308       O  0.00522310  0.07738606  0.51538582    -0.85600
C1309       C  0.53874192  0.08696165  0.52720307     1.02100
O1310       O  0.57346538  0.09794591  0.51606768    -0.78400
O1311       O  0.57572134  0.03259475  0.49021122    -0.78500
C1312       C  0.56668220  0.50589665  0.47254226     1.02100
O1313       O  0.55635678  0.07746880  0.42251384    -0.85900
O1314       O  0.97120173  0.04113950  0.43157984    -0.82900
C1315       C  0.97315562  0.07658927  0.42881028     0.97600
O1316       O  0.99019697  0.10486170  0.44559143    -0.83000
O1317       O  0.54433318  0.15223709  0.48409434    -0.85600
C1318       C  0.58395763  0.17330726  0.47890370     1.02100
O1319       O  0.60414638  0.15385824  0.47393515    -0.78400
O1320       O  0.61191657  0.09343224  0.44626662    -0.78500
C1321       C  0.59574170  0.09224040  0.42493910     1.02000
Cr1322     Cr  0.01782340  0.03424027  0.44555285     1.93700
Cr1323     Cr  0.99973195  0.08986816  0.48007553     1.93200
Cr1324     Cr  0.58746653  0.09285028  0.48078973     1.39100
O1325       O  0.53479335  0.07278547  0.46932386    -1.23600
O1326       O  0.90658507  0.41844747  0.47031111    -0.85900
O1327       O  0.88619739  0.33904143  0.45245505    -0.82900
C1328       C  0.89076847  0.32839052  0.47389094     0.97600
O1329       O  0.86046077  0.31623063  0.48927064    -0.83000
O1330       O  0.79382208  0.31870923  0.51338091    -0.85600
C1331       C  0.80831648  0.35363987  0.52552783     1.02100
O1332       O  0.82325794  0.38944162  0.51443737    -0.78400
O1333       O  0.86875694  0.44948412  0.47735786    -0.78500
C1334       C  0.90479549  0.45134269  0.47615191     1.02100
O1335       O  0.85641388  0.42581461  0.43180303    -0.85900
O1336       O  0.82765387  0.34191452  0.42008148    -0.82900
C1337       C  0.81319439  0.30208835  0.42197819     0.97600
O1338       O  0.80703688  0.28430899  0.44341425    -0.83000
O1339       O  0.74325480  0.29218324  0.46901476    -0.85600
C1340       C  0.72485790  0.31221932  0.47681118     1.02100
O1341       O  0.74696285  0.35067696  0.48462563    -0.78400
O1342       O  0.79231952  0.40330238  0.44529797    -0.78500
C1343       C  0.81922947  0.41838076  0.42782224     1.02000
Cr1344     Cr  0.86640896  0.38009460  0.44539129     1.93700
Cr1345     Cr  0.80271293  0.30640662  0.47797701     1.93200
Cr1346     Cr  0.80904645  0.39596794  0.47962256     1.39100
O1347       O  0.82529079  0.36034580  0.46784527    -1.23600
C1348       C  0.72374154  0.17049487  0.29826471     0.02600
C1349       C  0.76139680  0.20117585  0.31046141    -0.13500
C1350       C  0.76562649  0.19792780  0.33629675     0.00100
C1351       C  0.73447791  0.16207731  0.34894777    -0.12100
C1352       C  0.69575728  0.13410404  0.33782146     0.02600
C1353       C  0.69020654  0.13785373  0.31232684    -0.11500
H1354       H  0.78565136  0.22872082  0.30030787     0.08200
H1355       H  0.73694121  0.16035956  0.36902518     0.05700
H1356       H  0.65974701  0.11643995  0.30369628     0.05600
C1357       C  0.86990828  0.50429545  0.97308025     0.02600
C1358       C  0.85064335  0.46578266  0.98727827    -0.13500
C1359       C  0.85053252  0.46800255  0.01340262     0.00100
C1360       C  0.86625156  0.50792096  0.02466842    -0.12100
C1361       C  0.88504814  0.04179202  0.01218275     0.02600
C1362       C  0.88796035  0.04060692  0.98618029    -0.11500
H1363       H  0.83633212  0.43473674  0.97811042     0.08200
H1364       H  0.86389688  0.50943343  0.04474899     0.05700
H1365       H  0.90520489  0.07040376  0.97580687     0.05600
C1366       C  0.86840640  0.25944734  0.96793755     0.02600
C1367       C  0.89195939  0.24670289  0.98289363    -0.13500
C1368       C  0.89155978  0.25098870  0.00872415     0.00100
C1369       C  0.86980949  0.26973743  0.01924777    -0.12100
C1370       C  0.84314721  0.27889927  0.00506919     0.02600
C1371       C  0.84350873  0.27508034  0.97903989    -0.11500
H1372       H  0.90916211  0.23238225  0.97456757     0.08200
H1373       H  0.86975804  0.27219777  0.03938560     0.05700
H1374       H  0.82328909  0.28227596  0.96761440     0.05600
C1375       C  0.76386641  0.10660986  0.14194627     0.02600
C1376       C  0.74191111  0.06104630  0.14237197    -0.13500
C1377       C  0.76392459  0.03798886  0.14479706     0.00100
C1378       C  0.80887584  0.06174114  0.14747808    -0.12100
C1379       C  0.83181647  0.10732372  0.14696729     0.02600
C1380       C  0.80883005  0.12920355  0.14375365    -0.11500
H1381       H  0.70744184  0.04348737  0.14096278     0.08200
H1382       H  0.82623158  0.04466303  0.14957852     0.05700
H1383       H  0.82588262  0.16409259  0.14361015     0.05600
O1384       O  0.54199794  0.25897211  0.11982621    -0.85900
O1385       O  0.55871662  0.19889540  0.14103160    -0.82900
C1386       C  0.55565251  0.16372919  0.14741576     0.97600
O1387       O  0.51879221  0.13024508  0.14988246    -0.83000
O1388       O  0.47788881  0.15090098  0.18705874    -0.85600
C1389       C  0.46747170  0.17579990  0.19761031     1.02100
O1390       O  0.45705127  0.19917938  0.18519959    -0.78400
O1391       O  0.52356569  0.26479596  0.15717339    -0.78500
C1392       C  0.55064819  0.27983736  0.13969661     1.02100
O1393       O  0.47995493  0.19573119  0.09113780    -0.85900
O1394       O  0.50356966  0.13829160  0.10519606    -0.82900
C1395       C  0.96379537  0.11079967  0.10139747     0.97600
O1396       O  0.93874652  0.09980198  0.11967138    -0.83000
O1397       O  0.89923012  0.11397792  0.15822828    -0.85600
C1398       C  0.87969544  0.13205387  0.14929769     1.02100
O1399       O  0.90039361  0.17094339  0.14227286    -0.78400
O1400       O  0.96174381  0.23428893  0.11344977    -0.78500
C1401       C  0.96271282  0.21686347  0.09287615     1.02000
Cr1402     Cr  0.51896193  0.19690743  0.11604831     1.93700
Cr1403     Cr  0.95975643  0.12650109  0.15305994     1.93200
Cr1404     Cr  0.96149574  0.21428799  0.14898069     1.39100
O1405       O  0.48014948  0.18024694  0.13966926    -1.23600
O1406       O  0.67398438  0.30799538  0.14097106    -0.85900
O1407       O  0.61379506  0.32512419  0.11986140    -0.82900
C1408       C  0.59322327  0.31983578  0.13952323     0.97600
O1409       O  0.61011456  0.34792497  0.15639237    -0.83000
O1410       O  0.67694725  0.41499077  0.18245388    -0.85600
C1411       C  0.70087875  0.40533925  0.19465122     1.02100
O1412       O  0.72657929  0.39656507  0.18386144    -0.78400
O1413       O  0.74237902  0.34960399  0.14860431    -0.78500
C1414       C  0.70971858  0.31218074  0.14647968     1.02100
O1415       O  0.73011715  0.35640378  0.10228049    -0.85900
O1416       O  0.67624459  0.38598248  0.08938348    -0.82900
C1417       C  0.65145616  0.40088891  0.09074135     0.97600
O1418       O  0.63681960  0.40471129  0.11165885    -0.83000
O1419       O  0.70228674  0.46945324  0.13939684    -0.85600
C1420       C  0.74144890  0.49038052  0.14522184     1.02100
O1421       O  0.76077861  0.47056430  0.15155893    -0.78400
O1422       O  0.77152235  0.42222678  0.11426000    -0.78500
C1423       C  0.76182595  0.39264401  0.09836527     1.02000
Cr1424     Cr  0.67491803  0.34697403  0.11508983     1.93700
Cr1425     Cr  0.65929577  0.40774829  0.14677771     1.93200
Cr1426     Cr  0.74634108  0.40843305  0.14884679     1.39100
O1427       O  0.69386912  0.38857691  0.13719911    -1.23600
O1428       O  0.62765322  0.19789633  0.13966361    -0.85900
O1429       O  0.70190893  0.25896542  0.11982862    -0.82900
C1430       C  0.71450411  0.27500238  0.14093321     0.97600
O1431       O  0.72943232  0.25834840  0.15550624    -0.83000
O1432       O  0.73381172  0.19137565  0.17807896    -0.85600
C1433       C  0.70112838  0.17117248  0.19172782     1.02100
O1434       O  0.66429302  0.14992531  0.18230822    -0.78400
O1435       O  0.59893605  0.12925781  0.14749988    -0.78500
C1436       C  0.59594886  0.16309302  0.14634366     1.02100
O1437       O  0.61944498  0.14030515  0.10042759    -0.85900
O1438       O  0.70131043  0.19997892  0.08603768    -0.82900
C1439       C  0.74036123  0.22807832  0.08730187     0.97600
O1440       O  0.75880300  0.23908321  0.10843848    -0.83000
O1441       O  0.75719779  0.16856765  0.13257932    -0.85600
C1442       C  0.73976857  0.13057679  0.14131889     1.02100
O1443       O  0.70243321  0.11316551  0.15067361    -0.78400
O1444       O  0.64334782  0.09935896  0.11422675    -0.78500
C1445       C  0.62476336  0.10862008  0.09761064     1.02000
Cr1446     Cr  0.66392592  0.19751585  0.11309571     1.93700
Cr1447     Cr  0.74105211  0.21205119  0.14292134     1.93200
Cr1448     Cr  0.65447577  0.12651681  0.14781080     1.39100
O1449       O  0.68703666  0.17816446  0.13445688    -1.23600
C1450       C  0.60144087  0.49093177  0.96992641     0.02600
C1451       C  0.60168999  0.45618200  0.98193986    -0.13500
C1452       C  0.59228939  0.44913757  0.00740328     0.00100
C1453       C  0.58236195  0.47634742  0.02052089    -0.12100
C1454       C  0.58323593  0.00930077  0.00980209     0.02600
C1455       C  0.59138653  0.01615550  0.98415049    -0.11500
H1456       H  0.61072476  0.43588174  0.97179975     0.08200
H1457       H  0.57854669  0.47273543  0.04059544     0.05700
H1458       H  0.59496462  0.04511532  0.97559767     0.05600
C1459       C  0.55855910  0.03331519  0.04597118    -0.09700
C1460       C  0.58992173  0.04351917  0.02752511     0.06500
C1461       C  0.63194577  0.07728301  0.03201971    -0.03400
C1462       C  0.64237177  0.09798668  0.05506763    -0.07900
C1463       C  0.61183777  0.08524201  0.07400898     0.05600
C1464       C  0.56943964  0.05342642  0.06927246    -0.02900
Br1465     Br  0.52646187  0.03434124  0.09469668    -0.02600
H1466       H  0.52651250  0.00656345  0.04311940     0.09500
H1467       H  0.67496043  0.12311142  0.05856374     0.07600
Br1468     Br  0.67799182  0.09219213  0.00903813    -0.03000
C1469       C  0.59205138  0.39003094  0.06367658    -0.09700
C1470       C  0.63611603  0.40916943  0.06735941     0.06500
C1471       C  0.66436592  0.43271994  0.04787802    -0.03400
C1472       C  0.64829987  0.43922878  0.02572773    -0.07900
C1473       C  0.60440120  0.42328376  0.02288894     0.05600
C1474       C  0.57603020  0.39642530  0.04149969    -0.02900
Br1475     Br  0.51550051  0.37280605  0.03859982    -0.02600
H1476       H  0.57005357  0.37061321  0.07824987     0.09500
H1477       H  0.67051994  0.46103208  0.01194182     0.07600
Br1478     Br  0.72523128  0.46186147  0.05185205    -0.03000
C1479       C  0.74514771  0.23033821  0.04102271    -0.09700
C1480       C  0.76320978  0.24985258  0.06398515     0.06500
C1481       C  0.80155955  0.29015840  0.06368438    -0.03400
C1482       C  0.82298810  0.30682281  0.04112372    -0.07900
C1483       C  0.80955296  0.28175926  0.01929808     0.05600
C1484       C  0.76784013  0.24601649  0.01878286    -0.02900
Br1485     Br  0.74265516  0.21330415  0.98910675    -0.02600
H1486       H  0.71443843  0.20097857  0.04041443     0.09500
H1487       H  0.85442270  0.33533935  0.04161532     0.07600
Br1488     Br  0.82904316  0.32263305  0.09315070    -0.03000
C1489       C  0.95420572  0.25356906  0.02864819    -0.09700
C1490       C  0.90983387  0.23321543  0.02617487     0.06500
C1491       C  0.88329706  0.20429411  0.04480047    -0.03400
C1492       C  0.90115152  0.20041292  0.06683985    -0.07900
C1493       C  0.94525709  0.22374855  0.07018076     0.05600
C1494       C  0.97208481  0.24826358  0.05043613    -0.02900
Br1495     Br  0.53110784  0.27670473  0.05174592    -0.02600
H1496       H  0.97478765  0.27557101  0.01439175     0.09500
H1497       H  0.88060611  0.17919333  0.08140375     0.07600
Br1498     Br  0.82216999  0.17211223  0.04171473    -0.03000
C1499       C  0.78807960  0.40233601  0.02960229    -0.09700
C1500       C  0.83206508  0.43066894  0.03056583     0.06500
C1501       C  0.85357663  0.43451255  0.05325685    -0.03400
C1502       C  0.83038766  0.42156306  0.07545979    -0.07900
C1503       C  0.78584641  0.39951752  0.07495048     0.05600
C1504       C  0.76491355  0.38531766  0.05162382    -0.02900
Br1505     Br  0.70470226  0.34654254  0.04814836    -0.02600
H1506       H  0.77111520  0.39732561  0.01221193     0.09500
H1507       H  0.84711595  0.42983379  0.09309016     0.07600
Br1508     Br  0.91478135  0.46608176  0.05524471    -0.03000
C1509       C  0.95304608  0.09331177  0.03101126    -0.09700
C1510       C  0.90980460  0.08016048  0.02791290     0.06500
C1511       C  0.88817938  0.08687360  0.04770163    -0.03400
C1512       C  0.90620809  0.09618847  0.07143114    -0.07900
C1513       C  0.94720725  0.10240892  0.07553318     0.05600
C1514       C  0.97212867  0.10504373  0.05455785    -0.02900
Br1515     Br  0.53247546  0.12307568  0.05649234    -0.02600
H1516       H  0.97052528  0.08932056  0.01585141     0.09500
H1517       H  0.88755967  0.09755364  0.08682579     0.07600
Br1518     Br  0.82994930  0.07295347  0.04437869    -0.03000
C1519       C  0.74521607  0.16662843  0.25495752    -0.09700
C1520       C  0.71867299  0.17325256  0.27109124     0.06500
C1521       C  0.68649307  0.17985593  0.26099790    -0.03400
C1522       C  0.68065107  0.17858519  0.23512280    -0.07900
C1523       C  0.70701085  0.17148317  0.21898737     0.05600
C1524       C  0.73956564  0.16552084  0.22917195    -0.02900
Br1525     Br  0.77509300  0.15224083  0.20890669    -0.02600
H1526       H  0.76969762  0.16101237  0.26251020     0.09500
H1527       H  0.65598276  0.18390403  0.22757511     0.07600
Br1528     Br  0.65126583  0.19277251  0.28174250    -0.03000
C1529       C  0.81374131  0.22672248  0.37243625    -0.09700
C1530       C  0.79320598  0.23472095  0.35260692     0.06500
C1531       C  0.78424483  0.26850159  0.35511422    -0.03400
C1532       C  0.79184069  0.29019499  0.37773894    -0.07900
C1533       C  0.80679981  0.27808864  0.39854433     0.05600
C1534       C  0.81947865  0.24716309  0.39548387    -0.02900
Br1535     Br  0.84389047  0.23083332  0.42200903    -0.02600
H1536       H  0.82055113  0.20066351  0.37091099     0.09500
H1537       H  0.78389851  0.31537639  0.37939633     0.07600
Br1538     Br  0.75511772  0.28213253  0.33004084    -0.03000
C1539       C  0.63784395  0.13402712  0.36076378    -0.09700
C1540       C  0.66011622  0.11235713  0.35538619     0.06500
C1541       C  0.66072881  0.08378857  0.37315383    -0.03400
C1542       C  0.64066823  0.07855060  0.39616283    -0.07900
C1543       C  0.62074635  0.10227478  0.40199603     0.05600
C1544       C  0.61899595  0.12985544  0.38404319    -0.02900
Br1545     Br  0.59555846  0.16613142  0.39157450    -0.02600
H1546       H  0.63920996  0.15792210  0.34787804     0.09500
H1547       H  0.64107366  0.05631909  0.40964549     0.07600
Br1548     Br  0.69361647  0.05607187  0.36794236    -0.03000
C1549       C  0.96016898  0.09568802  0.36108439    -0.09700
C1550       C  0.93385350  0.11362626  0.36315829     0.06500
C1551       C  0.91249108  0.10936715  0.38598676    -0.03400
C1552       C  0.92540541  0.09701241  0.40740370    -0.07900
C1553       C  0.95600647  0.08430860  0.40582736     0.05600
C1554       C  0.96978703  0.07924539  0.38202791    -0.02900
Br1555     Br  0.00347709  0.05259625  0.37651511    -0.02600
H1556       H  0.97569585  0.09717644  0.34355697     0.09500
H1557       H  0.91197351  0.09782907  0.42529159     0.07600
Br1558     Br  0.86858114  0.12415738  0.38902578    -0.03000
C1559       C  0.95752761  0.28558492  0.38969680    -0.09700
C1560       C  0.98627035  0.28474479  0.40698375     0.06500
C1561       C  0.02057293  0.28045744  0.39793965    -0.03400
C1562       C  0.02271513  0.27276433  0.37258328    -0.07900
C1563       C  0.98906678  0.26522379  0.35651629     0.05600
C1564       C  0.95894269  0.27615365  0.36462604    -0.02900
Br1565     Br  0.91422026  0.27001933  0.34302025    -0.02600
H1566       H  0.93244092  0.29146044  0.39586388     0.09500
H1567       H  0.54583779  0.26425207  0.36661225     0.07600
Br1568     Br  0.56339215  0.28136169  0.41915443    -0.03000
C1569       C  0.92615553  0.17103865  0.26326009    -0.09700
C1570       C  0.96197346  0.17968327  0.27740205     0.06500
C1571       C  0.99907880  0.18572095  0.26531907    -0.03400
C1572       C  0.00003811  0.18343389  0.23927535    -0.07900
C1573       C  0.96446780  0.17582262  0.22504164     0.05600
C1574       C  0.92713854  0.16905760  0.23729109    -0.02900
Br1575     Br  0.87578652  0.15436297  0.21950891    -0.02600
H1576       H  0.89731111  0.16580020  0.27248044     0.09500
H1577       H  0.02879911  0.18834527  0.23011091     0.07600
Br1578     Br  0.04894000  0.19733202  0.28378000    -0.03000
C1579       C  0.83582430  0.45987233  0.38804775    -0.09700
C1580       C  0.80735789  0.42386113  0.40236787     0.06500
C1581       C  0.76986417  0.39121110  0.39106651    -0.03400
C1582       C  0.76009226  0.39647435  0.36665700    -0.07900
C1583       C  0.78564071  0.43498629  0.35366324     0.05600
C1584       C  0.82470105  0.46565135  0.36393317    -0.02900
Br1585     Br  0.86154709  0.51624795  0.34541681    -0.02600
H1586       H  0.86579830  0.48430787  0.39595990     0.09500
H1587       H  0.72965726  0.37260535  0.35891335     0.07600
Br1588     Br  0.72990926  0.33922669  0.40806815    -0.03000
C1589       C  0.60331055  0.42953391  0.38333704    -0.09700
C1590       C  0.61407010  0.41564462  0.40528298     0.06500
C1591       C  0.64930245  0.40962576  0.40519122    -0.03400
C1592       C  0.67306169  0.41748009  0.38370447    -0.07900
C1593       C  0.66477471  0.43423299  0.36207970     0.05600
C1594       C  0.62868300  0.43936278  0.36179478    -0.02900
Br1595     Br  0.61355349  0.46117361  0.33338863    -0.02600
H1596       H  0.57573997  0.43367380  0.38315162     0.09500
H1597       H  0.69899300  0.41107402  0.38425940     0.07600
Br1598     Br  0.66664455  0.38950422  0.43336456    -0.03000
C1599       C  0.69284375  0.43780057  0.23349292    -0.09700
C1600       C  0.70023763  0.40688372  0.22219805     0.06500
C1601       C  0.70886711  0.38011632  0.23745044    -0.03400
C1602       C  0.71172986  0.38600669  0.26331837    -0.07900
C1603       C  0.70603247  0.41818197  0.27447191     0.05600
C1604       C  0.69599291  0.44390042  0.25924554    -0.02900
Br1605     Br  0.69053585  0.49095501  0.27198337    -0.02600
H1606       H  0.68649781  0.45885664  0.22211171     0.09500
H1607       H  0.71885808  0.36559906  0.27476904     0.07600
Br1608     Br  0.71563210  0.33412800  0.22429500    -0.03000
C1609       C  0.84289522  0.38371236  0.56649034    -0.09700
C1610       C  0.80748900  0.35244096  0.55317350     0.06500
C1611       C  0.77215278  0.32051822  0.56658480    -0.03400
C1612       C  0.77308097  0.32003762  0.59266944    -0.07900
C1613       C  0.80869774  0.35096377  0.60601007     0.05600
C1614       C  0.84396377  0.38301025  0.59259362    -0.02900
Br1615     Br  0.89572738  0.42464890  0.60867508    -0.02600
H1616       H  0.87043746  0.40818860  0.55649907     0.09500
H1617       H  0.74555628  0.29550535  0.60264646     0.07600
Br1618     Br  0.72066747  0.27828864  0.55045942    -0.03000
C1619       C  0.57996820  0.49462817  0.92670572    -0.09700
C1620       C  0.60950410  0.99558125  0.94333387     0.06500
C1621       C  0.64988972  0.00570360  0.93400572    -0.03400
C1622       C  0.65778029  0.01076457  0.90831224    -0.07900
C1623       C  0.62614482  0.00670792  0.89167463     0.05600
C1624       C  0.58598225  0.99731547  0.90116509    -0.02900
Br1625     Br  0.54010308  0.48841698  0.88009052    -0.02600
H1626       H  0.54886509  0.48665578  0.93384310     0.09500
H1627       H  0.68873035  0.01800067  0.90130329     0.07600
Br1628     Br  0.69558105  0.01437023  0.95568028    -0.03000
C1629       C  0.84119407  0.20944310  0.90367842    -0.09700
C1630       C  0.86924780  0.24461301  0.88893781     0.06500
C1631       C  0.89692338  0.28446665  0.90027086    -0.03400
C1632       C  0.89592998  0.28884426  0.92606362    -0.07900
C1633       C  0.86781622  0.25381265  0.94080883     0.05600
C1634       C  0.84045911  0.21377208  0.92956050    -0.02900
Br1635     Br  0.80172521  0.16446754  0.94888140    -0.02600
H1636       H  0.81987949  0.17870413  0.89505530     0.09500
H1637       H  0.91733990  0.31957040  0.93467786     0.07600
Br1638     Br  0.93689927  0.33369154  0.88133801    -0.03000
C1639       C  0.83409110  0.24660981  0.71086627    -0.09700
C1640       C  0.80882532  0.24131035  0.73208662     0.06500
C1641       C  0.77236296  0.24543486  0.72916747    -0.03400
C1642       C  0.76290835  0.25584095  0.70586885    -0.07900
C1643       C  0.79244368  0.26874235  0.68613988     0.05600
C1644       C  0.82684265  0.26126723  0.68825932    -0.02900
Br1645     Br  0.86850246  0.27693603  0.66228008    -0.02600
H1646       H  0.86169749  0.24264172  0.71228087     0.09500
H1647       H  0.73651990  0.26186532  0.70454349     0.07600
Br1648     Br  0.73741098  0.24378826  0.75644853    -0.03000
C1649       C  0.82952882  0.98373111  0.90641179    -0.09700
C1650       C  0.86825954  0.00192552  0.89304708     0.06500
C1651       C  0.90674589  0.01812340  0.90680321    -0.03400
C1652       C  0.90570722  0.01718485  0.93292022    -0.07900
C1653       C  0.86704723  0.99937140  0.94601138     0.05600
C1654       C  0.82866901  0.98222880  0.93250520    -0.02900
Br1655     Br  0.77429015  0.95836455  0.94884191    -0.02600
H1656       H  0.79953254  0.97091730  0.89656565     0.09500
H1657       H  0.93537664  0.03005066  0.94314360     0.07600
Br1658     Br  0.96197723  0.04013907  0.89171449    -0.03000
C1659       C  0.79592803  0.42881955  0.69645147    -0.09700
C1660       C  0.82622569  0.41609735  0.69252171     0.06500
C1661       C  0.85527801  0.42263909  0.71179112    -0.03400
C1662       C  0.84742395  0.43152059  0.73581031    -0.07900
C1663       C  0.81371149  0.43907329  0.74066241     0.05600
C1664       C  0.79088024  0.44225553  0.72015277    -0.02900
Br1665     Br  0.75248080  0.46403661  0.72303167    -0.02600
H1666       H  0.77415599  0.42531926  0.68164639     0.09500
H1667       H  0.86815547  0.43287336  0.75072380     0.07600
Br1668     Br  0.90211295  0.41268327  0.70687440    -0.03000
C1669       C  0.95849157  0.23458526  0.69782894    -0.09700
C1670       C  0.96991969  0.27679774  0.69151114     0.06500
C1671       C  0.96063874  0.30109427  0.70835050    -0.03400
C1672       C  0.94916012  0.28692576  0.73277840    -0.07900
C1673       C  0.94235762  0.24651313  0.74015665     0.05600
C1674       C  0.94260708  0.21851558  0.72161792    -0.02900
Br1675     Br  0.92208749  0.15862669  0.72716502    -0.02600
H1676       H  0.96453046  0.21513368  0.68485562     0.09500
H1677       H  0.94531955  0.30755793  0.74598850     0.07600
Br1678     Br  0.46889810  0.35647801  0.69935508    -0.03000
C1679       C  0.58492009  0.41448323  0.70864324    -0.09700
C1680       C  0.60404513  0.39382485  0.69661425     0.06500
C1681       C  0.63547194  0.38913052  0.70915343    -0.03400
C1682       C  0.64591780  0.40343394  0.73376356    -0.07900
C1683       C  0.62405424  0.42076031  0.74636767     0.05600
C1684       C  0.59286173  0.42573715  0.73366485    -0.02900
Br1685     Br  0.55796597  0.44499343  0.74967147    -0.02600
H1686       H  0.55994297  0.41725105  0.69934030     0.09500
H1687       H  0.66994076  0.39952505  0.74342846     0.07600
Br1688     Br  0.66213304  0.36043144  0.69377400    -0.03000
C1689       C  0.57262322  0.36265834  0.57041612    -0.09700
C1690       C  0.53573694  0.35707822  0.55860414     0.06500
C1691       C  0.00081422  0.35077823  0.57331951    -0.03400
C1692       C  0.50293549  0.34882598  0.59936316    -0.07900
C1693       C  0.53932699  0.35251004  0.61109038     0.05600
C1694       C  0.57452017  0.35973371  0.59620415    -0.02900
Br1695     Br  0.62445696  0.36084121  0.60920948    -0.02600
H1696       H  0.59956573  0.36699016  0.55938259     0.09500
H1697       H  0.97617007  0.34449819  0.61046212     0.07600
Br1698     Br  0.95026655  0.34659820  0.55914701    -0.03000
C1699       C  0.63495971  0.12548102  0.70804449    -0.09700
C1700       C  0.62085205  0.09698749  0.68761292     0.06500
C1701       C  0.62282005  0.05900244  0.68940668    -0.03400
C1702       C  0.63128766  0.04674782  0.71241509    -0.07900
C1703       C  0.63626022  0.07096441  0.73411806     0.05600
C1704       C  0.63910927  0.11144730  0.73157830    -0.02900
Br1705     Br  0.64258991  0.14673864  0.75934934    -0.02600
H1706       H  0.63402288  0.15514008  0.70682907     0.09500
H1707       H  0.63105345  0.01653312  0.71352957     0.07600
Br1708     Br  0.60871542  0.01989220  0.66206339    -0.03000
C1709       C  0.92423695  0.04418548  0.71660637    -0.09700
C1710       C  0.94133554  0.07105156  0.73762953     0.06500
C1711       C  0.97946578  0.11079381  0.73490727    -0.03400
C1712       C  0.50021299  0.12260908  0.71170937    -0.07900
C1713       C  0.98561652  0.09231743  0.69187468     0.05600
C1714       C  0.94632258  0.05399651  0.69407355    -0.02900
Br1715     Br  0.92420924  0.01137951  0.66817536    -0.02600
H1716       H  0.89434112  0.01423247  0.71793973     0.09500
H1717       H  0.53039950  0.15248650  0.71021470     0.07600
Br1718     Br  0.00525030  0.15166838  0.76152938    -0.03000
C1719       C  0.54591147  0.12469231  0.59359038    -0.09700
C1720       C  0.54469304  0.09047752  0.60689202     0.06500
C1721       C  0.53880393  0.05376979  0.59383355    -0.03400
C1722       C  0.53638326  0.05274980  0.56778388    -0.07900
C1723       C  0.53863354  0.08746326  0.55454975     0.05600
C1724       C  0.54283929  0.12335417  0.56760928    -0.02900
Br1725     Br  0.04093455  0.16915697  0.55089100    -0.02600
H1726       H  0.54975196  0.15275377  0.60345151     0.09500
H1727       H  0.53254611  0.02475729  0.55783696     0.07600
Br1728     Br  0.53139009  0.00341120  0.61073933    -0.03000
C1729       C  0.54734833  0.59156326  0.63406457     0.02600
C1730       C  0.51550737  0.59314063  0.64844011    -0.13500
C1731       C  0.51820602  0.59402659  0.67447716     0.00100
C1732       C  0.55212352  0.59324136  0.68573953    -0.12100
C1733       C  0.58544458  0.59471536  0.67210262     0.02600
C1734       C  0.58297957  0.59328406  0.64598753    -0.11500
H1735       H  0.48850444  0.59259862  0.63946406     0.08200
H1736       H  0.55232323  0.59093866  0.70589937     0.05700
H1737       H  0.60818122  0.59338344  0.63507666     0.05600
C1738       C  0.53905461  0.84600023  0.63836399     0.02600
C1739       C  0.57444587  0.87443820  0.65303347    -0.13500
C1740       C  0.57766361  0.86333471  0.67758567     0.00100
C1741       C  0.54562508  0.82473534  0.68736282    -0.12100
C1742       C  0.50675506  0.80190545  0.67512903     0.02600
C1743       C  0.50354186  0.81123414  0.65016684    -0.11500
H1744       H  0.59906383  0.90483685  0.64545918     0.08200
H1745       H  0.54750516  0.81740687  0.70680256     0.05700
H1746       H  0.97414111  0.79231783  0.64018858     0.05600
C1747       C  0.93574831  0.94076127  0.81430117     0.02600
C1748       C  0.91352791  0.89534253  0.81368656    -0.13500
C1749       C  0.93541032  0.87217875  0.81386195     0.00100
C1750       C  0.98066157  0.89554676  0.81504940    -0.12100
C1751       C  0.00387553  0.94118826  0.81499345     0.02600
C1752       C  0.98083121  0.96322862  0.81431456    -0.11500
H1753       H  0.87896870  0.87790918  0.81335708     0.08200
H1754       H  0.99792092  0.87817600  0.81548139     0.05700
H1755       H  0.99809309  0.99811430  0.81470442     0.05600
O1756       O  0.80027814  0.53215330  0.80944349    -0.85900
O1757       O  0.87710999  0.59347814  0.79020835    -0.82900
C1758       C  0.88856798  0.61050692  0.81117405     0.97600
O1759       O  0.90119644  0.59362358  0.82710364    -0.83000
O1760       O  0.90194164  0.52634104  0.85218636    -0.85600
C1761       C  0.86809855  0.50346804  0.86463983     1.02100
O1762       O  0.83192967  0.97956015  0.85407270    -0.78400
O1763       O  0.77100554  0.96274316  0.81727116    -0.78500
C1764       C  0.76843221  0.49699127  0.81590720     1.02100
O1765       O  0.79523625  0.97403056  0.77180286    -0.85900
O1766       O  0.87726949  0.53261226  0.75872397    -0.82900
C1767       C  0.91682789  0.55771151  0.76053011     0.97600
O1768       O  0.93406933  0.57162088  0.78181662    -0.83000
O1769       O  0.93054337  0.50374285  0.80779024    -0.85600
C1770       C  0.91193557  0.96473235  0.81538466     1.02100
O1771       O  0.87382987  0.94611194  0.82351464    -0.78400
O1772       O  0.82104700  0.93551753  0.78496255    -0.78500
C1773       C  0.80750955  0.94788350  0.76706664     1.02000
Cr1774     Cr  0.83865506  0.53179953  0.78413988     1.93700
Cr1775     Cr  0.91323110  0.54661120  0.81659730     1.93200
Cr1776     Cr  0.82630816  0.95943594  0.81915429     1.39100
O1777       O  0.86005862  0.51261001  0.80680860    -1.23600
O1778       O  0.84762271  0.64281431  0.80955540    -0.85900
O1779       O  0.78599987  0.65538970  0.78738145    -0.82900
C1780       C  0.76404500  0.65199756  0.80617703     0.97600
O1781       O  0.77929142  0.68169400  0.82225740    -0.83000
O1782       O  0.84541653  0.74864235  0.84901538    -0.85600
C1783       C  0.86894432  0.73924999  0.86196275     1.02100
O1784       O  0.89425950  0.72884448  0.85214293    -0.78400
O1785       O  0.91559079  0.68584966  0.81671327    -0.78500
C1786       C  0.88352237  0.64794284  0.81528556     1.02100
O1787       O  0.90526689  0.69556469  0.77162566    -0.85900
O1788       O  0.84625116  0.71580888  0.75593241    -0.82900
C1789       C  0.82214620  0.73160192  0.75636215     0.97600
O1790       O  0.80833951  0.73748471  0.77708928    -0.83000
O1791       O  0.87312775  0.80297658  0.80547724    -0.85600
C1792       C  0.91105125  0.82375584  0.81368260     1.02100
O1793       O  0.92871213  0.80382411  0.82222429    -0.78400
O1794       O  0.94094184  0.76143877  0.78359740    -0.78500
C1795       C  0.93075988  0.73406959  0.76641409     1.02000
Cr1796     Cr  0.84743208  0.68011225  0.78295185     1.93700
Cr1797     Cr  0.82914516  0.74123957  0.81289571     1.93200
Cr1798     Cr  0.91614342  0.74318791  0.81775124     1.39100
O1799       O  0.86404750  0.72200291  0.80490236    -1.23600
O1800       O  0.71428549  0.59007473  0.78681661    -0.85900
O1801       O  0.73040150  0.53162342  0.80940162    -0.82900
C1802       C  0.72777623  0.49713418  0.81660127     0.97600
O1803       O  0.69060463  0.96359162  0.81965272    -0.83000
O1804       O  0.64831797  0.98657875  0.85511469    -0.85600
C1805       C  0.63466049  0.50988300  0.86428361     1.02100
O1806       O  0.62416164  0.53193463  0.85068284    -0.78400
O1807       O  0.69357127  0.59738281  0.82333995    -0.78500
C1808       C  0.72158710  0.61182968  0.80629389     1.02100
O1809       O  0.65264153  0.52575972  0.75776555    -0.85900
O1810       O  0.67651458  0.96897869  0.77389307    -0.82900
C1811       C  0.63837365  0.94021866  0.77098335     0.97600
O1812       O  0.61255278  0.93216343  0.78856659    -0.83000
O1813       O  0.57160290  0.94861268  0.82553523    -0.85600
C1814       C  0.55179437  0.96583416  0.81583917     1.02100
O1815       O  0.57254469  0.50398538  0.80707743    -0.78400
O1816       O  0.63735730  0.56901217  0.77867541    -0.78500
C1817       C  0.64122204  0.55357833  0.75800977     1.02000
Cr1818     Cr  0.69094397  0.52777098  0.78372470     1.93700
Cr1819     Cr  0.63236939  0.96131186  0.82134306     1.93200
Cr1820     Cr  0.63334662  0.54821129  0.81450589     1.39100
O1821       O  0.65153388  0.51227735  0.80673546    -1.23600
C1822       C  0.80980748  0.84917551  0.63372841     0.02600
C1823       C  0.80078714  0.80990042  0.64521579    -0.13500
C1824       C  0.80012110  0.80676982  0.67129614     0.00100
C1825       C  0.80870361  0.84250737  0.68548183    -0.12100
C1826       C  0.81868531  0.88167510  0.67488207     0.02600
C1827       C  0.81814954  0.88503678  0.64883656    -0.11500
H1828       H  0.79468780  0.78232069  0.63398456     0.08200
H1829       H  0.80846759  0.84000883  0.70564234     0.05700
H1830       H  0.82450422  0.91511162  0.64044554     0.05600
C1831       C  0.71357344  0.92781079  0.30161730     0.02600
C1832       C  0.75133365  0.93271948  0.31227702    -0.13500
C1833       C  0.76269345  0.94933713  0.33641271     0.00100
C1834       C  0.73895295  0.96497531  0.34816662    -0.12100
C1835       C  0.69610927  0.94759863  0.34149892     0.02600
C1836       C  0.68380745  0.93058081  0.31737231    -0.11500
H1837       H  0.77116267  0.92313897  0.30223840     0.08200
H1838       H  0.74907678  0.97924486  0.36651670     0.05700
H1839       H  0.65132698  0.91789481  0.31112883     0.05600
C1840       C  0.95999535  0.68258045  0.30478626     0.02600
C1841       C  0.94360906  0.64496889  0.31952432    -0.13500
C1842       C  0.94048206  0.64770866  0.34549928     0.00100
C1843       C  0.95374062  0.68764459  0.35612221    -0.12100
C1844       C  0.97175999  0.72512434  0.34207630     0.02600
C1845       C  0.97461752  0.72300158  0.31619698    -0.11500
H1846       H  0.93437246  0.61421193  0.31091762     0.08200
H1847       H  0.95348902  0.69048686  0.37623744     0.05700
H1848       H  0.98839337  0.75218645  0.30514935     0.05600
C1849       C  0.60983736  0.79162237  0.48263237     0.02600
C1850       C  0.65503880  0.81335207  0.48070463    -0.13500
C1851       C  0.67722569  0.79038510  0.47767289     0.00100
C1852       C  0.65326475  0.74507819  0.47649354    -0.12100
C1853       C  0.60842797  0.72226047  0.47896510     0.02600
C1854       C  0.58718994  0.74595720  0.48210481    -0.11500
H1855       H  0.67298218  0.84816851  0.48164198     0.08200
H1856       H  0.66991812  0.72729267  0.47435675     0.05700
H1857       H  0.55273783  0.72876300  0.48368011     0.05600
O1858       O  0.96452878  0.87331362  0.47503738    -0.85900
O1859       O  0.53970153  0.93861782  0.45617389    -0.82900
C1860       C  0.55931966  0.96147814  0.47450899     0.97600
O1861       O  0.57191751  0.94621247  0.49150895    -0.83000
O1862       O  0.56921782  0.87908531  0.51938692    -0.85600
C1863       C  0.53464370  0.85525582  0.53107783     1.02100
O1864       O  0.00106391  0.82896572  0.51996439    -0.78400
O1865       O  0.94113455  0.80500829  0.48182943    -0.78500
C1866       C  0.93395027  0.83615659  0.47969269     1.02100
O1867       O  0.96734885  0.81828719  0.43808649    -0.85900
O1868       O  0.54742760  0.88229292  0.42507109    -0.82900
C1869       C  0.58717247  0.90560096  0.42774458     0.97600
O1870       O  0.60399078  0.91936042  0.44905485    -0.83000
O1871       O  0.60281866  0.85472253  0.47740310    -0.85600
C1872       C  0.58575607  0.81591183  0.48439638     1.02100
O1873       O  0.54773124  0.79694735  0.49241986    -0.78400
O1874       O  0.99767396  0.78399746  0.45150523    -0.78500
C1875       C  0.98239528  0.79441681  0.43354241     1.02000
Cr1876     Cr  0.50617757  0.87688497  0.45044042     1.93700
Cr1877     Cr  0.58272846  0.89694966  0.48372324     1.93200
Cr1878     Cr  0.99888464  0.80753976  0.48565356     1.39100
O1879       O  0.52990552  0.86084579  0.47359860    -1.23600
O1880       O  0.55948614  0.01587014  0.45191272    -0.85900
O1881       O  0.97817017  0.99085585  0.46894513    -0.82900
C1882       C  0.94584572  0.99282945  0.47584245     0.97600
O1883       O  0.94728921  0.52849004  0.47829417    -0.83000
O1884       O  0.00498381  0.57687588  0.51536849    -0.85600
C1885       C  0.53900938  0.58706372  0.52693025     1.02100
O1886       O  0.57376171  0.59789791  0.51586977    -0.78400
O1887       O  0.57608169  0.53279039  0.48988197    -0.78500
C1888       C  0.56632403  0.00567717  0.47288602     1.02100
O1889       O  0.55682946  0.57783408  0.42224656    -0.85900
O1890       O  0.97064986  0.54042575  0.43156135    -0.82900
C1891       C  0.97253589  0.57584864  0.42878542     0.97600
O1892       O  0.98951352  0.60413319  0.44557298    -0.83000
O1893       O  0.54491770  0.65273669  0.48382006    -0.85600
C1894       C  0.58456917  0.67376153  0.47874015     1.02100
O1895       O  0.60476478  0.65427301  0.47387589    -0.78400
O1896       O  0.61235427  0.59382891  0.44606188    -0.78500
C1897       C  0.59621548  0.59262973  0.42472265     1.02000
Cr1898     Cr  0.01735432  0.53365489  0.44553643     1.93700
Cr1899     Cr  0.99925241  0.58928921  0.48005690     1.93200
Cr1900     Cr  0.58790382  0.59312671  0.48058257     1.39100
O1901       O  0.53528279  0.57323238  0.46907280    -1.23600
O1902       O  0.90694662  0.91913890  0.47015428    -0.85900
O1903       O  0.88665761  0.83971326  0.45256818    -0.82900
C1904       C  0.89123107  0.82918170  0.47403939     0.97600
O1905       O  0.86094931  0.81712590  0.48942849    -0.83000
O1906       O  0.79422503  0.81966792  0.51346053    -0.85600
C1907       C  0.80882823  0.85470098  0.52552797     1.02100
O1908       O  0.82375840  0.89041571  0.51434165    -0.78400
O1909       O  0.86911193  0.95018723  0.47712753    -0.78500
C1910       C  0.90514215  0.95202272  0.47597636     1.02100
O1911       O  0.85665323  0.92618433  0.43154534    -0.85900
O1912       O  0.82797206  0.84220440  0.42011252    -0.82900
C1913       C  0.81369562  0.80242577  0.42211151     0.97600
O1914       O  0.80759724  0.78481981  0.44359733    -0.83000
O1915       O  0.74376845  0.79282704  0.46901849    -0.85600
C1916       C  0.72531709  0.81284564  0.47674142     1.02100
O1917       O  0.74736547  0.85132622  0.48453792    -0.78400
O1918       O  0.79261507  0.90376123  0.44512824    -0.78500
C1919       C  0.81945378  0.91877196  0.42761183     1.02000
Cr1920     Cr  0.86675216  0.88061558  0.44532455     1.93700
Cr1921     Cr  0.80319199  0.80715217  0.47808029     1.93200
Cr1922     Cr  0.80943158  0.89666258  0.47948431     1.39100
O1923       O  0.82570111  0.86100731  0.46781054    -1.23600
C1924       C  0.72515406  0.67094853  0.29842327     0.02600
C1925       C  0.76287060  0.70141645  0.31065205    -0.13500
C1926       C  0.76696285  0.69805405  0.33649557     0.00100
C1927       C  0.73567829  0.66218803  0.34908288    -0.12100
C1928       C  0.69690974  0.63450618  0.33790557     0.02600
C1929       C  0.69148863  0.63839908  0.31242940    -0.11500
H1930       H  0.78721463  0.72896004  0.30053988     0.08200
H1931       H  0.73803312  0.66034744  0.36916004     0.05700
H1932       H  0.66099051  0.61719754  0.30377301     0.05600
C1933       C  0.86755505  0.00047103  0.97365804     0.02600
C1934       C  0.84838982  0.96176822  0.98770065    -0.13500
C1935       C  0.84799904  0.96368158  0.01384081     0.00100
C1936       C  0.86324594  0.00343392  0.02525091    -0.12100
C1937       C  0.88806703  0.54610506  0.01142604     0.02600
C1938       C  0.89067164  0.54459174  0.98542147    -0.11500
H1939       H  0.83440687  0.93084552  0.97841214     0.08200
H1940       H  0.86069416  0.00469339  0.04533208     0.05700
H1941       H  0.90791486  0.57424072  0.97491494     0.05600
C1942       C  0.86146237  0.75376678  0.96856118     0.02600
C1943       C  0.88518566  0.74177684  0.98398347    -0.13500
C1944       C  0.88481521  0.74693382  0.00975507     0.00100
C1945       C  0.86337289  0.76634475  0.01977074    -0.12100
C1946       C  0.83726141  0.77590278  0.00529020     0.02600
C1947       C  0.83687250  0.77023172  0.97932214    -0.11500
H1948       H  0.90272698  0.72751695  0.97604092     0.08200
H1949       H  0.86403209  0.77011495  0.03982791     0.05700
H1950       H  0.81751087  0.77813650  0.96760318     0.05600
C1951       C  0.76447562  0.60744388  0.14193914     0.02600
C1952       C  0.74282631  0.56187542  0.14242276    -0.13500
C1953       C  0.76510470  0.53906661  0.14490045     0.00100
C1954       C  0.81003319  0.56310916  0.14756669    -0.12100
C1955       C  0.83270980  0.60872239  0.14700908     0.02600
C1956       C  0.80945005  0.63032410  0.14375089    -0.11500
H1957       H  0.70835900  0.54410553  0.14101609     0.08200
H1958       H  0.82756580  0.54621845  0.14969846     0.05700
H1959       H  0.82628919  0.66520832  0.14357537     0.05600
O1960       O  0.54087146  0.75756484  0.12015565    -0.85900
O1961       O  0.55765846  0.69770089  0.14160399    -0.82900
C1962       C  0.55471648  0.66261386  0.14804361     0.97600
O1963       O  0.51788019  0.62902559  0.15038976    -0.83000
O1964       O  0.47656907  0.64968937  0.18727596    -0.85600
C1965       C  0.46609737  0.67462532  0.19771304     1.02100
O1966       O  0.45549289  0.69777352  0.18522263    -0.78400
O1967       O  0.52201927  0.76343184  0.15737698    -0.78500
C1968       C  0.54924986  0.77850216  0.13999306     1.02100
O1969       O  0.47932249  0.69417398  0.09134000    -0.85900
O1970       O  0.50288920  0.63692068  0.10564132    -0.82900
C1971       C  0.96546286  0.61387376  0.10080206     0.97600
O1972       O  0.94017581  0.60251892  0.11898441    -0.83000
O1973       O  0.90023966  0.61543373  0.15784261    -0.85600
C1974       C  0.88059850  0.63369690  0.14937595     1.02100
O1975       O  0.90117989  0.67286792  0.14283443    -0.78400
O1976       O  0.96211948  0.73651512  0.11406787    -0.78500
C1977       C  0.96276564  0.71919680  0.09338191     1.02000
Cr1978     Cr  0.51809666  0.69553150  0.11642335     1.93700
Cr1979     Cr  0.96082616  0.62839988  0.15264190     1.93200
Cr1980     Cr  0.96242292  0.71620740  0.14944091     1.39100
O1981       O  0.47903082  0.67880471  0.13987925    -1.23600
O1982       O  0.67263396  0.80722407  0.14220117    -0.85900
O1983       O  0.61243597  0.82369278  0.12031830    -0.82900
C1984       C  0.59173866  0.81858945  0.13987410     0.97600
O1985       O  0.60848841  0.84690772  0.15663601    -0.83000
O1986       O  0.67521407  0.91420323  0.18261281    -0.85600
C1987       C  0.69932770  0.90491915  0.19491022     1.02100
O1988       O  0.72530942  0.89642066  0.18423610    -0.78400
O1989       O  0.74109077  0.84892088  0.14952444    -0.78500
C1990       C  0.70841880  0.81150692  0.14770289     1.02100
O1991       O  0.72859062  0.85440975  0.10316149    -0.85900
O1992       O  0.67458933  0.88368265  0.08962419    -0.82900
C1993       C  0.64975844  0.89859410  0.09077756     0.97600
O1994       O  0.63546170  0.90318195  0.11164315    -0.83000
O1995       O  0.70083536  0.96842581  0.13942159    -0.85600
C1996       C  0.74005872  0.98934648  0.14515902     1.02100
O1997       O  0.75940405  0.96958281  0.15148038    -0.78400
O1998       O  0.77005316  0.92055247  0.11454611    -0.78500
C1999       C  0.76026624  0.89051151  0.09894559     1.02000
Cr2000     Cr  0.67347194  0.84538715  0.11577921     1.93700
Cr2001     Cr  0.65777617  0.90668665  0.14688376     1.93200
Cr2002     Cr  0.74496731  0.90756998  0.14920629     1.39100
O2003       O  0.69244935  0.88749673  0.13754120    -1.23600
O2004       O  0.62691934  0.69733658  0.14081591    -0.85900
O2005       O  0.70084661  0.75882520  0.12088419    -0.82900
C2006       C  0.71338364  0.77456809  0.14202461     0.97600
O2007       O  0.72869137  0.75802724  0.15639617    -0.83000
O2008       O  0.73376396  0.69110265  0.17837443    -0.85600
C2009       C  0.70119577  0.67072816  0.19207486     1.02100
O2010       O  0.66428686  0.64932453  0.18274719    -0.78400
O2011       O  0.59850023  0.62859499  0.14810720    -0.78500
C2012       C  0.59522725  0.66229458  0.14719227     1.02100
O2013       O  0.61879866  0.64048939  0.10118433    -0.85900
O2014       O  0.70043590  0.70065040  0.08678933    -0.82900
C2015       C  0.73937587  0.72913660  0.08794346     0.97600
O2016       O  0.75810415  0.73988878  0.10900312    -0.83000
O2017       O  0.75716059  0.66912308  0.13266307    -0.85600
C2018       C  0.74001700  0.63108898  0.14133888     1.02100
O2019       O  0.70265734  0.61335848  0.15069793    -0.78400
O2020       O  0.64330896  0.59973377  0.11437162    -0.78500
C2021       C  0.62459291  0.60920785  0.09793961     1.02000
Cr2022     Cr  0.66310896  0.69756525  0.11399037     1.93700
Cr2023     Cr  0.74067548  0.71222370  0.14337604     1.93200
Cr2024     Cr  0.65436587  0.62631293  0.14814344     1.39100
O2025       O  0.68662410  0.67817613  0.13500801    -1.23600
C2026       C  0.59883189  0.98739788  0.97008433     0.02600
C2027       C  0.59853674  0.95226500  0.98197293    -0.13500
C2028       C  0.58902002  0.94502468  0.00743939     0.00100
C2029       C  0.57936132  0.97238137  0.02065436    -0.12100
C2030       C  0.58539917  0.51278700  0.00950235     0.02600
C2031       C  0.59346350  0.51947216  0.98384251    -0.11500
H2032       H  0.60740654  0.93190294  0.97176010     0.08200
H2033       H  0.57544888  0.96863713  0.04071812     0.05700
H2034       H  0.59639993  0.54806441  0.97514877     0.05600
C2035       C  0.55940921  0.53544213  0.04555894    -0.09700
C2036       C  0.59098372  0.54673142  0.02710957     0.06500
C2037       C  0.63263518  0.58109010  0.03175761    -0.03400
C2038       C  0.64268292  0.60091119  0.05506211    -0.07900
C2039       C  0.61212193  0.58672253  0.07406566     0.05600
C2040       C  0.56995141  0.55458873  0.06911586    -0.02900
Br2041     Br  0.52687121  0.53378325  0.09453410    -0.02600
H2042       H  0.52761654  0.50834152  0.04253359     0.09500
H2043       H  0.67504142  0.62644510  0.05868924     0.07600
Br2044     Br  0.67881516  0.59797947  0.00858411    -0.03000
C2045       C  0.58975180  0.88673506  0.06386757    -0.09700
C2046       C  0.63390483  0.90597250  0.06728443     0.06500
C2047       C  0.66171979  0.92890743  0.04751309    -0.03400
C2048       C  0.64520448  0.93496845  0.02540278    -0.07900
C2049       C  0.60127299  0.91916395  0.02286474     0.05600
C2050       C  0.57327539  0.89263166  0.04171177    -0.02900
Br2051     Br  0.51268291  0.86885616  0.03914553    -0.02600
H2052       H  0.56804299  0.86767324  0.07863983     0.09500
H2053       H  0.66716984  0.95642557  0.01140739     0.07600
Br2054     Br  0.72265098  0.95790124  0.05100134    -0.03000
C2055       C  0.74144032  0.73397920  0.04172248    -0.09700
C2056       C  0.76152646  0.75160965  0.06460161     0.06500
C2057       C  0.80083628  0.79101490  0.06413135    -0.03400
C2058       C  0.82127813  0.80777601  0.04128722    -0.07900
C2059       C  0.80594148  0.78307859  0.01936453     0.05600
C2060       C  0.76300433  0.74993244  0.01921882    -0.02900
Br2061     Br  0.73327518  0.72239848  0.98933338    -0.02600
H2062       H  0.70960717  0.70613478  0.04121883     0.09500
H2063       H  0.85344247  0.83518457  0.04151916     0.07600
Br2064     Br  0.83073739  0.82183310  0.09353261    -0.03000
C2065       C  0.94895991  0.75115463  0.02881662    -0.09700
C2066       C  0.90441706  0.73111547  0.02766400     0.06500
C2067       C  0.87947579  0.70453018  0.04756557    -0.03400
C2068       C  0.89923045  0.70235223  0.06923547    -0.07900
C2069       C  0.94360423  0.72503169  0.07107116     0.05600
C2070       C  0.96867809  0.74754920  0.05030120    -0.02900
Br2071     Br  0.53106978  0.77358642  0.05175036    -0.02600
H2072       H  0.96836319  0.77160728  0.01369181     0.09500
H2073       H  0.87992066  0.68274918  0.08466428     0.07600
Br2074     Br  0.81809480  0.67295785  0.04670651    -0.03000
C2075       C  0.78587794  0.89793251  0.03015037    -0.09700
C2076       C  0.82988324  0.92621849  0.03091793     0.06500
C2077       C  0.85156761  0.93035269  0.05358351    -0.03400
C2078       C  0.82860853  0.91832550  0.07588937    -0.07900
C2079       C  0.78407077  0.89658166  0.07552231     0.05600
C2080       C  0.76290544  0.88163446  0.05230731    -0.02900
Br2081     Br  0.70266663  0.84272114  0.04912001    -0.02600
H2082       H  0.76875832  0.89252921  0.01278449     0.09500
H2083       H  0.84551470  0.92705362  0.09346172     0.07600
Br2084     Br  0.91278397  0.96175223  0.05532747    -0.03000
C2085       C  0.95596899  0.59740535  0.03034754    -0.09700
C2086       C  0.91288088  0.58466712  0.02699028     0.06500
C2087       C  0.89115353  0.59162449  0.04661634    -0.03400
C2088       C  0.90865544  0.60037274  0.07048552    -0.07900
C2089       C  0.94935188  0.60598355  0.07484530     0.05600
C2090       C  0.97460007  0.60867581  0.05402266    -0.02900
Br2091     Br  0.53212513  0.62292260  0.05669805    -0.02600
H2092       H  0.97357644  0.59332364  0.01529780     0.09500
H2093       H  0.88985171  0.60179615  0.08577239     0.07600
Br2094     Br  0.83321319  0.57839097  0.04285391    -0.03000
C2095       C  0.74621468  0.66684950  0.25507261    -0.09700
C2096       C  0.72001087  0.67382526  0.27128866     0.06500
C2097       C  0.68778667  0.68048728  0.26132457    -0.03400
C2098       C  0.68143926  0.67874378  0.23549515    -0.07900
C2099       C  0.70738521  0.67118628  0.21928499     0.05600
C2100       C  0.74011673  0.66536223  0.22932395    -0.02900
Br2101     Br  0.77536174  0.65189228  0.20891564    -0.02600
H2102       H  0.77074171  0.66122038  0.26253663     0.09500
H2103       H  0.65674533  0.68410536  0.22803441     0.07600
Br2104     Br  0.65319165  0.69413243  0.28217149    -0.03000
C2105       C  0.81472579  0.72696140  0.37279476    -0.09700
C2106       C  0.79429468  0.73485680  0.35286391     0.06500
C2107       C  0.78516758  0.76854311  0.35526174    -0.03400
C2108       C  0.79252156  0.79025439  0.37786101    -0.07900
C2109       C  0.80747019  0.77831640  0.39873948     0.05600
C2110       C  0.82032184  0.74749924  0.39579922    -0.02900
Br2111     Br  0.84481524  0.73147694  0.42242645    -0.02600
H2112       H  0.82164708  0.70096888  0.37135924     0.09500
H2113       H  0.78440430  0.81532602  0.37943912     0.07600
Br2114     Br  0.75608436  0.78200060  0.33007108    -0.03000
C2115       C  0.63926812  0.63508571  0.36079561    -0.09700
C2116       C  0.66112773  0.61300746  0.35537727     0.06500
C2117       C  0.66109300  0.58392761  0.37299442    -0.03400
C2118       C  0.64084225  0.57859412  0.39593955    -0.07900
C2119       C  0.62131472  0.60267197  0.40183128     0.05600
C2120       C  0.62012569  0.63071693  0.38399600    -0.02900
Br2121     Br  0.59701915  0.66725314  0.39159941    -0.02600
H2122       H  0.64111380  0.65932324  0.34800972     0.09500
H2123       H  0.64076810  0.55598669  0.40932550     0.07600
Br2124     Br  0.69319497  0.55542381  0.36762575    -0.03000
C2125       C  0.95991211  0.59535398  0.36107116    -0.09700
C2126       C  0.93351733  0.61321084  0.36314076     0.06500
C2127       C  0.91196271  0.60869478  0.38592878    -0.03400
C2128       C  0.92476857  0.59621228  0.40733996    -0.07900
C2129       C  0.95540982  0.58356211  0.40578263     0.05600
C2130       C  0.96932737  0.57866642  0.38198702    -0.02900
Br2131     Br  0.00275835  0.55174214  0.37644025    -0.02600
H2132       H  0.97555640  0.59698039  0.34356702     0.09500
H2133       H  0.91120314  0.59686820  0.42521104     0.07600
Br2134     Br  0.86783448  0.62318184  0.38892744    -0.03000
C2135       C  0.95734103  0.78555855  0.38990386    -0.09700
C2136       C  0.98589178  0.78442862  0.40722674     0.06500
C2137       C  0.01995448  0.77969320  0.39822598    -0.03400
C2138       C  0.02207465  0.77195662  0.37287789    -0.07900
C2139       C  0.98858579  0.76475710  0.35677086     0.05600
C2140       C  0.95868501  0.77601286  0.36484409    -0.02900
Br2141     Br  0.91429951  0.77046277  0.34315161    -0.02600
H2142       H  0.93247390  0.79179680  0.39602854     0.09500
H2143       H  0.54660939  0.76496949  0.36647762     0.07600
Br2144     Br  0.56431386  0.78236017  0.41900809    -0.03000
C2145       C  0.92637106  0.67058927  0.26329151    -0.09700
C2146       C  0.96227887  0.67977400  0.27749754     0.06500
C2147       C  0.99969894  0.68654131  0.26547239    -0.03400
C2148       C  0.00084908  0.68437812  0.23942115    -0.07900
C2149       C  0.96516661  0.67623854  0.22513311     0.05600
C2150       C  0.92756617  0.66881802  0.23732384    -0.02900
Br2151     Br  0.87621657  0.65374763  0.21942868    -0.02600
H2152       H  0.89731374  0.66485249  0.27245831     0.09500
H2153       H  0.02985067  0.68988901  0.23029629     0.07600
Br2154     Br  0.04974775  0.69907734  0.28402633    -0.03000
C2155       C  0.83581882  0.96043202  0.38788155    -0.09700
C2156       C  0.80747136  0.92433602  0.40218511     0.06500
C2157       C  0.76986885  0.89177600  0.39092220    -0.03400
C2158       C  0.75985174  0.89722505  0.36659923    -0.07900
C2159       C  0.78536018  0.93576616  0.35361907     0.05600
C2160       C  0.82450818  0.96635880  0.36384227    -0.02900
Br2161     Br  0.86123478  0.01707388  0.34537743    -0.02600
H2162       H  0.86584688  0.98482703  0.39575833     0.09500
H2163       H  0.72933214  0.87343098  0.35891453     0.07600
Br2164     Br  0.73011918  0.83964256  0.40786992    -0.03000
C2165       C  0.60336181  0.93047098  0.38362687    -0.09700
C2166       C  0.61429893  0.91670461  0.40554993     0.06500
C2167       C  0.64990530  0.91129705  0.40549564    -0.03400
C2168       C  0.67373607  0.91943583  0.38402248    -0.07900
C2169       C  0.66511083  0.93584425  0.36236721     0.05600
C2170       C  0.62877907  0.94057757  0.36209626    -0.02900
Br2171     Br  0.61337297  0.96226542  0.33374447    -0.02600
H2172       H  0.57557473  0.93425355  0.38344309     0.09500
H2173       H  0.69989878  0.91335915  0.38459186     0.07600
Br2174     Br  0.66762043  0.89150782  0.43366708    -0.03000
C2175       C  0.69086865  0.93724953  0.23369865    -0.09700
C2176       C  0.69857969  0.90651863  0.22245081     0.06500
C2177       C  0.70757805  0.88005961  0.23774124    -0.03400
C2178       C  0.71062131  0.88616850  0.26358646    -0.07900
C2179       C  0.70479965  0.91829827  0.27469095     0.05600
C2180       C  0.69423678  0.94360289  0.25943454    -0.02900
Br2181     Br  0.68842060  0.99051525  0.27204916    -0.02600
H2182       H  0.68418817  0.95803158  0.22228385     0.09500
H2183       H  0.71806234  0.86600832  0.27505139     0.07600
Br2184     Br  0.71474045  0.83426169  0.22466949    -0.03000
C2185       C  0.84407976  0.88431095  0.56643517    -0.09700
C2186       C  0.80815298  0.85370491  0.55318994     0.06500
C2187       C  0.77244349  0.82253424  0.56668150    -0.03400
C2188       C  0.77359734  0.82189128  0.59277188    -0.07900
C2189       C  0.80977125  0.85206045  0.60603620     0.05600
C2190       C  0.84530541  0.88355086  0.59254436    -0.02900
Br2191     Br  0.89751555  0.92433579  0.60857147    -0.02600
H2192       H  0.87186362  0.90827530  0.55638262     0.09500
H2193       H  0.74584364  0.79785235  0.60281256     0.07600
Br2194     Br  0.72022658  0.78173976  0.55060883    -0.03000
C2195       C  0.57812212  0.99204418  0.92677955    -0.09700
C2196       C  0.61169828  0.49867966  0.94313954     0.06500
C2197       C  0.65190806  0.50854179  0.93364744    -0.03400
C2198       C  0.65927468  0.51281302  0.90790798    -0.07900
C2199       C  0.62727405  0.50819223  0.89139896     0.05600
C2200       C  0.58730292  0.49909767  0.90104206    -0.02900
Br2201     Br  0.53921520  0.98733680  0.88002894    -0.02600
H2202       H  0.54689765  0.98392287  0.93377616     0.09500
H2203       H  0.69009245  0.51987014  0.90076101     0.07600
Br2204     Br  0.69804196  0.51787440  0.95513477    -0.03000
C2205       C  0.82853225  0.71813103  0.90164061    -0.09700
C2206       C  0.86758638  0.74198620  0.88922769     0.06500
C2207       C  0.90457218  0.76916792  0.90300051    -0.03400
C2208       C  0.90184528  0.77255763  0.92880201    -0.07900
C2209       C  0.86269023  0.74894148  0.94126510     0.05600
C2210       C  0.82600283  0.72075090  0.92751437    -0.02900
Br2211     Br  0.77264381  0.68241908  0.94315383    -0.02600
H2212       H  0.80009156  0.69665131  0.89121527     0.09500
H2213       H  0.93032926  0.79408968  0.93917550     0.07600
Br2214     Br  0.95897485  0.80425406  0.88729346    -0.03000
C2215       C  0.83493072  0.74655211  0.71081264    -0.09700
C2216       C  0.80963185  0.74163302  0.73196469     0.06500
C2217       C  0.77330395  0.74592702  0.72884923    -0.03400
C2218       C  0.76412809  0.75630371  0.70545116    -0.07900
C2219       C  0.79382499  0.76897074  0.68581186     0.05600
C2220       C  0.82793521  0.76110790  0.68809926    -0.02900
Br2221     Br  0.86956436  0.77616198  0.66216818    -0.02600
H2222       H  0.86237292  0.74233346  0.71234408     0.09500
H2223       H  0.73792917  0.76259608  0.70398662     0.07600
Br2224     Br  0.73816547  0.74446271  0.75597307    -0.03000
C2225       C  0.83108952  0.48580407  0.90599151    -0.09700
C2226       C  0.86964988  0.50348364  0.89249995     0.06500
C2227       C  0.90832371  0.52020479  0.90612725    -0.03400
C2228       C  0.90760173  0.52011570  0.93224089    -0.07900
C2229       C  0.86909756  0.50272500  0.94545519     0.05600
C2230       C  0.83055487  0.48521335  0.93208745    -0.02900
Br2231     Br  0.77638436  0.46208372  0.94858785    -0.02600
H2232       H  0.80098008  0.47271605  0.89624023     0.09500
H2233       H  0.93738942  0.53327088  0.94236826     0.07600
Br2234     Br  0.96342225  0.54191062  0.89090446    -0.03000
C2235       C  0.79716157  0.92872129  0.69665202    -0.09700
C2236       C  0.82779889  0.91638067  0.69291637     0.06500
C2237       C  0.85656643  0.92304631  0.71238352    -0.03400
C2238       C  0.84814328  0.93161431  0.73635021    -0.07900
C2239       C  0.81415798  0.93884894  0.74098001     0.05600
C2240       C  0.79159756  0.94196437  0.72030472    -0.02900
Br2241     Br  0.75306520  0.96361298  0.72287805    -0.02600
H2242       H  0.77561520  0.92519143  0.68170319     0.09500
H2243       H  0.86873048  0.93310739  0.75138924     0.07600
Br2244     Br  0.90413238  0.91418858  0.70771924    -0.03000
C2245       C  0.95842008  0.73536538  0.69773313    -0.09700
C2246       C  0.97013831  0.77769987  0.69154031     0.06500
C2247       C  0.96108310  0.80202835  0.70848173    -0.03400
C2248       C  0.94966482  0.78776784  0.73290048    -0.07900
C2249       C  0.94260425  0.74720451  0.74016077     0.05600
C2250       C  0.94248266  0.71918199  0.72149984    -0.02900
Br2251     Br  0.92120933  0.65907253  0.72678484    -0.02600
H2252       H  0.96420168  0.71585895  0.68466247     0.09500
H2253       H  0.94605533  0.80844086  0.74619008     0.07600
Br2254     Br  0.46920178  0.85741517  0.69989416    -0.03000
C2255       C  0.58536658  0.91567367  0.70839983    -0.09700
C2256       C  0.60445946  0.89498832  0.69636036     0.06500
C2257       C  0.63583629  0.89021603  0.70890099    -0.03400
C2258       C  0.64614611  0.90432019  0.73355053    -0.07900
C2259       C  0.62416480  0.92148204  0.74619140     0.05600
C2260       C  0.59310487  0.92664226  0.73346711    -0.02900
Br2261     Br  0.55802571  0.94562869  0.74951921    -0.02600
H2262       H  0.56042433  0.91849908  0.69908992     0.09500
H2263       H  0.67008912  0.90030253  0.74323028     0.07600
Br2264     Br  0.66243278  0.86146721  0.69350001    -0.03000
C2265       C  0.57208482  0.86135150  0.57039926    -0.09700
C2266       C  0.53553440  0.85662570  0.55859098     0.06500
C2267       C  0.00094138  0.85129792  0.57334837    -0.03400
C2268       C  0.50308297  0.84956898  0.59933306    -0.07900
C2269       C  0.53916967  0.85255703  0.61106391     0.05600
C2270       C  0.57398965  0.85868984  0.59619509    -0.02900
Br2271     Br  0.62333131  0.85871603  0.60930893    -0.02600
H2272       H  0.59873086  0.86489909  0.55936689     0.09500
H2273       H  0.97613464  0.84490092  0.61044764     0.07600
Br2274     Br  0.95004385  0.84620843  0.55911105    -0.03000
C2275       C  0.63412482  0.62386123  0.70740444    -0.09700
C2276       C  0.61964168  0.59492157  0.68719156     0.06500
C2277       C  0.62166851  0.55699386  0.68915160    -0.03400
C2278       C  0.63066111  0.54527184  0.71216219    -0.07900
C2279       C  0.63610835  0.56998273  0.73370288     0.05600
C2280       C  0.63896552  0.61043254  0.73095930    -0.02900
Br2281     Br  0.64363558  0.64660664  0.75851475    -0.02600
H2282       H  0.63313317  0.65347711  0.70604555     0.09500
H2283       H  0.63043538  0.51507643  0.71343284     0.07600
Br2284     Br  0.60689362  0.51722884  0.66210587    -0.03000
C2285       C  0.92515073  0.54430912  0.71618085    -0.09700
C2286       C  0.94158788  0.57155004  0.73708478     0.06500
C2287       C  0.97935950  0.61162286  0.73435744    -0.03400
C2288       C  0.50005075  0.62162648  0.71154863    -0.07900
C2289       C  0.98646907  0.59300171  0.69153449     0.05600
C2290       C  0.94759341  0.55419760  0.69376117    -0.02900
Br2291     Br  0.92673134  0.51106884  0.66814007    -0.02600
H2292       H  0.89561786  0.51400712  0.71757752     0.09500
H2293       H  0.53051808  0.65118777  0.71002998     0.07600
Br2294     Br  0.00433828  0.65282663  0.76090035    -0.03000
C2295       C  0.54312469  0.62251853  0.59354902    -0.09700
C2296       C  0.54352015  0.58889620  0.60662083     0.06500
C2297       C  0.53964183  0.55321046  0.59329429    -0.03400
C2298       C  0.53789159  0.55284010  0.56724074    -0.07900
C2299       C  0.53857088  0.58701345  0.55425832     0.05600
C2300       C  0.54048830  0.62168153  0.56755947    -0.02900
Br2301     Br  0.04563309  0.67156833  0.55044790    -0.02600
H2302       H  0.54540724  0.64977219  0.60359535     0.09500
H2303       H  0.53561319  0.52567058  0.55709150     0.07600
Br2304     Br  0.53370415  0.50310082  0.60976884    -0.03000
loop_ 
_geom_bond_atom_site_label_1 
_geom_bond_atom_site_label_2 
_geom_bond_distance 
_geom_bond_site_symmetry_2 
_ccdc_geom_bond_type 
C1            C2   1.412       .  A
C1            C6   1.416       .  A
C1          C568   1.480       .  S
C2            C3   1.402       .  A
C2            H7   1.083   1_455  S
C3            C4   1.384       .  A
C3         C1713   1.473   1_455  S
C4            C5   1.389       .  A
C4            H8   1.086       .  S
C5            C6   1.405       .  A
C5          C548   1.480       .  S
C6            H9   1.083       .  S
C10          C11   1.413       .  A
C10          C15   1.414       .  A
C10         C541   1.485       .  S
C11          C12   1.400       .  A
C11          H16   1.083       .  S
C12          C13   1.388       .  A
C12         C528   1.465       .  S
C13          C14   1.390       .  A
C13          H17   1.088       .  S
C14          C15   1.401       .  A
C14        C1670   1.468   1_455  S
C15        H1170   1.083   1_455  S
H18        C1167   1.083       .  S
C19          C20   1.411       .  A
C19          C24   1.413       .  A
C19          C42   1.496       .  S
C20          C21   1.409       .  A
C20          H25   1.083       .  S
C21          C22   1.420       .  A
C21          C64   1.504       .  S
C22          C23   1.417       .  A
C22          H26   1.083       .  S
C23          C24   1.411       .  A
C23        C1238   1.507       .  S
C24          H27   1.083       .  S
O28         Cr46   1.947       .  S
O28          C36   1.258   1_545  A
O29         Cr46   1.963       .  S
O29          C30   1.249       .  A
C30          C58   1.461       .  S
C30          O31   1.261       .  A
O31         Cr47   2.024       .  S
O32         Cr47   2.013       .  S
O32          C33   1.270       .  A
C33         C498   1.498       .  S
C33         O610   1.267   1_545  A
O34         Cr48   1.983       .  S
O34         C609   1.267       .  A
O35         Cr48   2.070       .  S
O35         C612   1.279       .  A
C36          C74   1.476       .  S
C36         O611   1.279       .  A
O37        Cr622   1.978       .  S
O37          C45   1.251       .  A
O38         Cr46   1.942       .  S
O38          C39   1.257       .  A
C39         C558   1.479       .  S
C39          O40   1.279       .  A
O40         Cr47   2.046       .  S
O41         Cr47   1.988       .  S
O41         C618   1.264   1_545  A
C42          O43   1.271       .  A
C42         O617   1.264       .  A
O43         Cr48   2.020       .  S
O44         Cr48   1.995       .  S
O44          C45   1.258       .  A
C45         C511   1.484       .  S
Cr46        O613   1.977   1_545  S
Cr46         O49   1.761       .  S
Cr47         O49   1.767       .  S
Cr48        O625   1.777       .  S
O49        Cr624   1.777   1_545  S
O50         Cr68   1.962       .  S
O50          C58   1.258       .  A
O51         Cr68   1.953       .  S
O51          C52   1.252       .  A
C52          C80   1.489       .  S
C52          O53   1.264       .  A
O53         Cr69   2.051       .  S
O54         Cr69   2.006       .  S
O54          C55   1.271       .  A
C55         C478   1.468       .  S
C55          O56   1.266       .  A
O56         Cr70   1.973       .  S
O57         Cr70   2.049       .  S
O57          C58   1.273       .  A
O59         Cr68   1.975       .  S
O59          C67   1.249       .  A
O60         Cr68   1.952       .  S
O60          C61   1.259       .  A
C61         C488   1.490       .  S
C61          O62   1.280       .  A
O62         Cr69   2.047       .  S
O63         Cr69   2.016       .  S
O63          C64   1.270       .  A
C64          O65   1.263       .  A
O65         Cr70   2.002       .  S
O66         Cr70   2.002       .  S
O66          C67   1.261       .  A
C67         C521   1.480       .  S
Cr68         O71   1.762       .  S
Cr69         O71   1.772       .  S
Cr70         O71   1.784       .  S
O72         Cr90   1.960       .  S
O72          C80   1.251       .  A
O73         Cr90   1.943       .  S
O73          C74   1.255   1_545  A
C74         O651   1.278       .  A
O75         Cr91   2.074       .  S
O75         C650   1.278       .  A
O76         Cr91   1.981       .  S
O76         C653   1.264       .  A
C77         C471   1.476       .  S
C77          O78   1.269       .  A
C77         O652   1.264   1_545  A
O78         Cr92   2.009       .  S
O79         Cr92   2.059       .  S
O79          C80   1.268       .  A
O81         Cr90   1.945       .  S
O81          C89   1.259       .  A
O82        Cr666   1.988       .  S
O82          C83   1.253       .  A
C83         C531   1.465       .  S
C83          O84   1.256       .  A
O84         Cr91   1.989       .  S
O85         Cr91   2.025       .  S
O85          C86   1.272       .  A
C86        C1175   1.506       .  S
C86         O663   1.270       .  A
O87         Cr92   2.007       .  S
O87         C662   1.270   1_545  A
O88         Cr92   2.044       .  S
O88          C89   1.279       .  A
C89         C551   1.483       .  S
Cr90        O658   1.988   1_545  S
Cr90         O93   1.753       .  S
Cr91        O669   1.777       .  S
Cr92         O93   1.769       .  S
O93        Cr667   1.776   1_545  S
C94          C95   1.419       .  A
C94          C99   1.420       .  A
C94         C461   1.491       .  S
C95          C96   1.405       .  A
C95         H100   1.083       .  S
C96          C97   1.387       .  A
C96         C491   1.481       .  S
C97          C98   1.386       .  A
C97         H101   1.086       .  S
C98          C99   1.405       .  A
C98         C508   1.479       .  S
C99         H102   1.083       .  S
C103        C104   1.412       .  A
C103        C108   1.413       .  A
C103        C451   1.484       .  S
C104        C105   1.400       .  A
C104        H109   1.083       .  S
C105        C106   1.392       .  A
C105        C431   1.474       .  S
C106        C107   1.399       .  A
C106        H110   1.086       .  S
C107        C108   1.407       .  A
C107        C441   1.489       .  S
C108        H111   1.081       .  S
C112        C113   1.413       .  A
C112        C117   1.411       .  A
C112        C418   1.475       .  S
C113        C114   1.407       .  A
C113        H118   1.083       .  S
C114        C115   1.386       .  A
C114        C398   1.477       .  S
C115        C116   1.387       .  A
C115        H119   1.086       .  S
C116        C117   1.399       .  A
C116        C411   1.466       .  S
C117        H120   1.083       .  S
C121        C122   1.421       .  A
C121        C126   1.418       .  A
C121        C144   1.515       .  S
C122        C123   1.421       .  A
C122        H127   1.082       .  S
C123        C124   1.409       .  A
C123        C188   1.510       .  S
C124        C125   1.411       .  A
C124        H128   1.083       .  S
C125        C126   1.415       .  A
C125        C166   1.506       .  S
C126        H129   1.083       .  S
O130      Cr1300   1.965       .  S
O130        C138   1.259       .  A
O131       Cr148   1.944       .  S
O131        C132   1.251       .  A
C132        C160   1.478       .  S
C132        O133   1.263       .  A
O133       Cr149   2.038       .  S
O134       Cr149   2.001       .  S
O134        C135   1.272       .  A
C135        C538   1.479       .  S
C135       O1288   1.267       .  A
O136       Cr150   1.983       .  S
O136       C1287   1.267       .  A
O137       Cr150   2.060       .  S
O137        C138   1.275       .  A
C138        C176   1.471       .  S
O139      Cr1300   1.970       .  S
O139        C147   1.249       .  A
O140       Cr148   1.957       .  S
O140        C141   1.259       .  A
C141        C438   1.466       .  S
C141        O142   1.275       .  A
O142       Cr149   2.021       .  S
O143       Cr149   2.013       .  S
O143        C144   1.265       .  A
C144        O145   1.267       .  A
O145      Cr1302   2.021   1_455  S
O146       Cr150   2.011       .  S
O146        C147   1.260       .  A
C147        C408   1.479       .  S
Cr148      O1282   1.965   1_455  S
Cr148      O1291   1.969   1_455  S
Cr148       O151   1.767       .  S
Cr149       O151   1.775       .  S
Cr150      O1297   2.020       .  S
Cr150      O1303   1.785       .  S
O151      Cr1302   1.785   1_455  S
O152      Cr1898   1.964       .  S
O152        C160   1.248       .  A
O153       Cr746   1.954       .  S
O153        C154   1.264       .  A
C154        C182   1.467       .  S
C154        O731   1.277       .  A
O155       Cr171   2.048       .  S
O155        C730   1.278   1_545  A
O156       Cr171   1.984       .  S
O156       C1309   1.262       .  A
C157        C571   1.468       .  S
C157        O158   1.264       .  A
C157       O1308   1.262       .  A
O158       Cr172   1.993       .  S
O159       Cr172   2.048       .  S
O159        C736   1.259       .  A
C160        O735   1.259       .  A
O161      Cr1322   1.944       .  S
O161        C169   1.256       .  A
O162       Cr170   1.977       .  S
O162        C163   1.248       .  A
C163        C401   1.472       .  S
C163        O164   1.263       .  A
O164       Cr171   2.008       .  S
O165      Cr1323   2.025   1_455  S
O165        C166   1.272       .  A
C166        O167   1.268       .  A
O167       Cr172   1.994       .  S
O168       Cr172   2.049       .  S
O168        C169   1.279       .  A
C169        C391   1.462       .  S
Cr170      O1880   1.965       .  S
Cr170       O729   1.954   1_545  S
Cr170      O1313   1.944       .  S
Cr170      O1325   1.755       .  S
Cr171      O1317   2.027       .  S
Cr171      O1325   1.772       .  S
Cr172       O173   1.779       .  S
O173      Cr1322   1.756       .  S
O173      Cr1323   1.773   1_455  S
O174       Cr192   1.948       .  S
O174        C182   1.254       .  A
O175       Cr192   1.974       .  S
O175        C176   1.251       .  A
C176        O177   1.263       .  A
O177       Cr193   2.033       .  S
O178       Cr193   2.016       .  S
O178        C179   1.270       .  A
C179        C458   1.486       .  S
C179        O180   1.265       .  A
O180       Cr194   1.987       .  S
O181       Cr194   2.052       .  S
O181        C182   1.276       .  A
O183       Cr192   1.991       .  S
O183        C191   1.255       .  A
O184       Cr192   1.941       .  S
O184        C185   1.256       .  A
C185        C381   1.476       .  S
C185        O186   1.281       .  A
O186       Cr193   2.056       .  S
O187       Cr193   2.008       .  S
O187        C188   1.272       .  A
C188        O189   1.270       .  A
O189       Cr194   2.026       .  S
O190       Cr194   2.001       .  S
O190        C191   1.262       .  A
C191        C428   1.478       .  S
Cr192       O195   1.764       .  S
Cr193       O195   1.767       .  S
Cr194       O195   1.771       .  S
C196        C197   1.413       .  A
C196        C201   1.410       .  A
C196        C368   1.480       .  S
C197        C198   1.408       .  A
C197        H202   1.083       .  S
C198        C199   1.390       .  A
C198        C378   1.479       .  S
C199        C200   1.386       .  A
C199        H203   1.087       .  S
C200        C201   1.400       .  A
C200        C388   1.466       .  S
C201        H204   1.083       .  S
C205        C206   1.418       .  A
C205        C786   1.416       .  A
C205       C1077   1.485       .  S
C206        C207   1.406   1_556  A
C206        H211   1.083       .  S
C207        C208   1.388       .  A
C207        C348   1.481       .  S
C208        C785   1.386       .  A
C208        H212   1.085       .  S
C209        C210   1.403   1_554  A
C209        C784   1.386       .  A
C209        C358   1.475       .  S
C210        C781   1.416       .  A
C210        H213   1.083       .  S
C214        C215   1.408       .  A
C214        C219   1.415       .  A
C214        C481   1.476       .  S
C215        C216   1.397   1_556  A
C215        H220   1.084       .  S
C216        C217   1.387       .  A
C216        C338   1.469       .  S
C217        C218   1.396       .  A
C217        H221   1.085       .  S
C218        C219   1.408   1_554  A
C218        C331   1.488       .  S
C219        H222   1.083       .  S
C223        C224   1.415       .  A
C223        C228   1.413       .  A
C223        C290   1.505       .  S
C224        C225   1.416       .  A
C224        H229   1.083       .  S
C225        C226   1.417       .  A
C225        C844   1.512   1_545  S
C226        C227   1.416       .  A
C226        H230   1.083       .  S
C227        C228   1.415       .  A
C227        C246   1.507       .  S
C228        H231   1.083       .  S
O232       Cr250   1.959       .  S
O232        C240   1.251       .  A
O233       Cr250   1.945       .  S
O233        C234   1.258       .  A
C234        C284   1.475       .  S
C234        O235   1.278       .  A
O235      Cr1403   2.071   1_455  S
O236      Cr1403   1.984       .  S
O236        C237   1.265       .  A
C237       C1573   1.476       .  S
C237        O238   1.270       .  A
O238      Cr1404   2.006       .  S
O239      Cr1404   2.057   1_455  S
O239        C240   1.265       .  A
C240        C256   1.489       .  S
O241       Cr250   1.932   1_655  S
O241       C1401   1.253       .  A
O242       Cr250   1.976       .  S
O242       C1395   1.251   1_455  A
C243        C361   1.484       .  S
C243        O244   1.258       .  A
C243       O1394   1.250       .  A
O244       Cr251   1.998       .  S
O245       Cr251   2.023       .  S
O245        C246   1.271       .  A
C246        O247   1.266       .  A
O247       Cr252   2.002       .  S
O248       Cr252   2.037       .  S
O248        C249   1.279       .  A
C249        C341   1.453       .  S
C249       O1393   1.253       .  A
Cr250       O253   1.758   1_455  S
Cr251      O1387   2.069       .  S
Cr251      O1388   1.985       .  S
Cr251      O1405   1.781       .  S
Cr252      O1390   2.006       .  S
Cr252      O1391   2.059       .  S
Cr252      O1405   1.767       .  S
O253      Cr1403   1.781       .  S
O253      Cr1404   1.767       .  S
O254       Cr272   1.963       .  S
O254        C262   1.263       .  A
O255       Cr272   1.958       .  S
O255        C256   1.249       .  A
C256        O257   1.262       .  A
O257       Cr273   2.054       .  S
O258       Cr273   1.996       .  S
O258        C259   1.268       .  A
C259        C448   1.482       .  S
C259        O260   1.263       .  A
O260       Cr274   1.980       .  S
O261       Cr274   2.040       .  S
O261        C262   1.273       .  A
C262        C278   1.458       .  S
O263       Cr272   1.975       .  S
O263        C271   1.246       .  A
O264       Cr272   1.953       .  S
O264        C265   1.259       .  A
C265        C318   1.466       .  S
C265        O266   1.279       .  A
O266       Cr273   2.038       .  S
O267       Cr273   2.008       .  S
O267        C268   1.269       .  A
C268        C801   1.511       .  S
C268        O269   1.270       .  A
O269       Cr274   2.020       .  S
O270       Cr274   2.019       .  S
O270        C271   1.267       .  A
C271        C351   1.477       .  S
Cr272       O275   1.756       .  S
Cr273       O275   1.782       .  S
Cr274       O275   1.778       .  S
O276       Cr294   1.944       .  S
O276        C284   1.252       .  A
O277       Cr294   1.956       .  S
O277        C278   1.248       .  A
C278        O279   1.261       .  A
O279       Cr295   2.025       .  S
O280       Cr295   1.995       .  S
O280        C281   1.265       .  A
C281        C371   1.478       .  S
C281        O282   1.265       .  A
O282       Cr296   1.992       .  S
O283       Cr296   2.067       .  S
O283        C284   1.275       .  A
O285       Cr294   1.987       .  S
O285        C293   1.254       .  A
O286       Cr294   1.955       .  S
O286        C287   1.262       .  A
C287        C328   1.488       .  S
C287        O288   1.276       .  A
O288       Cr295   2.039       .  S
O289       Cr295   2.003       .  S
O289        C290   1.271       .  A
C290        O291   1.274       .  A
O291       Cr296   2.029       .  S
O292       Cr296   1.994       .  S
O292        C293   1.261       .  A
C293        C311   1.461       .  S
Cr294       O297   1.757       .  S
Cr295       O297   1.769       .  S
Cr296       O297   1.773       .  S
C298        C299   1.410       .  A
C298        C879   1.411       .  A
C298       C1044   1.478       .  S
C299        C300   1.402   1_556  A
C299        H304   1.084       .  S
C300        C301   1.391       .  A
C300        C321   1.470       .  S
C301        C878   1.390       .  A
C301        H305   1.086       .  S
C302        C303   1.403   1_554  A
C302        C877   1.390   1_545  A
C302        C308   1.474       .  S
C303        C874   1.410   1_545  A
C303        H306   1.084       .  S
C307        C308   1.409       .  A
C307        C312   1.398       .  A
C307        H314   1.084       .  S
C308        C309   1.412       .  A
C309        C310   1.395       .  A
C309       Br316   1.922       .  S
C310        C311   1.399       .  A
C310        H315   1.084       .  S
C311        C312   1.403       .  A
C312       Br313   1.919       .  S
C317        C318   1.401       .  A
C317        C322   1.395       .  A
C317        H324   1.084       .  S
C318        C319   1.409       .  A
C319        C320   1.397       .  A
C319       Br326   1.921       .  S
C320        C321   1.404       .  A
C320        H325   1.084       .  S
C321        C322   1.410       .  A
C322       Br323   1.921       .  S
C327        C328   1.407       .  A
C327        C332   1.396       .  A
C327        H334   1.083       .  S
C328        C329   1.417       .  A
C329        C330   1.401       .  A
C329       Br336   1.922       .  S
C330        C331   1.409       .  A
C330        H335   1.084       .  S
C331        C332   1.407       .  A
C332       Br333   1.912   1_554  S
C337        C338   1.401       .  A
C337        C342   1.398       .  A
C337        H344   1.083       .  S
C338        C339   1.414       .  A
C339        C340   1.390       .  A
C339       Br346   1.924       .  S
C340        C341   1.395       .  A
C340        H345   1.084       .  S
C341        C342   1.408       .  A
C342      Br1495   1.919       .  S
Br343      C1494   1.919   1_455  S
C347        C348   1.397       .  A
C347        C352   1.400       .  A
C347        H354   1.083       .  S
C348        C349   1.417       .  A
C349        C350   1.396       .  A
C349       Br356   1.921       .  S
C350        C351   1.397       .  A
C350        H355   1.083       .  S
C351        C352   1.421       .  A
C352       Br353   1.920       .  S
C357        C358   1.402       .  A
C357        C362   1.402       .  A
C357        H364   1.084       .  S
C358        C359   1.410       .  A
C359        C360   1.395       .  A
C359       Br366   1.918       .  S
C360        C361   1.405       .  A
C360        H365   1.084       .  S
C361        C362   1.416       .  A
C362      Br1515   1.917       .  S
Br363      C1514   1.916   1_455  S
C367        C368   1.400       .  A
C367        C372   1.398       .  A
C367        H374   1.084       .  S
C368        C369   1.411       .  A
C369        C370   1.403       .  A
C369       Br376   1.918       .  S
C370        C371   1.404       .  A
C370        H375   1.083       .  S
C371        C372   1.412       .  A
C372       Br373   1.919       .  S
C377        C378   1.411       .  A
C377        C382   1.400       .  A
C377        H384   1.084       .  S
C378        C379   1.411       .  A
C379        C380   1.394       .  A
C379       Br386   1.922       .  S
C380        C381   1.404       .  A
C380        H385   1.082       .  S
C381        C382   1.409       .  A
C382       Br383   1.919       .  S
C387        C388   1.404       .  A
C387        C392   1.395       .  A
C387        H394   1.084       .  S
C388        C389   1.409       .  A
C389        C390   1.397       .  A
C389       Br396   1.919       .  S
C390        C391   1.401       .  A
C390        H395   1.084       .  S
C391        C392   1.407       .  A
C392       Br393   1.922       .  S
C397        C398   1.398       .  A
C397        C402   1.395       .  A
C397        H404   1.083       .  S
C398        C399   1.416       .  A
C399        C400   1.397       .  A
C399       Br406   1.921       .  S
C400        C401   1.398       .  A
C400        H405   1.083       .  S
C401        C402   1.416       .  A
C402       Br403   1.915       .  S
C407        C408   1.409       .  A
C407        C412   1.396       .  A
C407        H414   1.083       .  S
C408        C409   1.413       .  A
C409        C410   1.399       .  A
C409      Br1568   1.919       .  S
C410        C411   1.406       .  A
C410       H1567   1.084       .  S
C411        C412   1.402       .  A
C412       Br413   1.916       .  S
H415       C1562   1.084       .  S
Br416      C1561   1.919       .  S
C417        C418   1.399       .  A
C417        C422   1.398       .  A
C417        H424   1.084       .  S
C418        C419   1.408       .  A
C419        C420   1.403       .  A
C419       Br426   1.916       .  S
C420        C421   1.404       .  A
C420        H425   1.084       .  S
C421        C422   1.411       .  A
C421       C1389   1.477       .  S
C422       Br423   1.917       .  S
C427        C428   1.409       .  A
C427        C432   1.404       .  A
C427        H434   1.084       .  S
C428        C429   1.411       .  A
C429        C430   1.397       .  A
C429       Br436   1.923       .  S
C430        C431   1.403       .  A
C430        H435   1.084       .  S
C431        C432   1.399       .  A
C432       Br433   1.906       .  S
C437        C438   1.410       .  A
C437        C442   1.407       .  A
C437        H444   1.082       .  S
C438        C439   1.399       .  A
C439        C440   1.380       .  A
C439       Br446   1.916       .  S
C440        C441   1.409       .  A
C440        H445   1.075       .  S
C441        C442   1.410       .  A
C442       Br443   1.918       .  S
C447        C448   1.404       .  A
C447        C452   1.396       .  A
C447        H454   1.084       .  S
C448        C449   1.413       .  A
C449        C450   1.401       .  A
C449       Br456   1.921       .  S
C450        C451   1.406       .  A
C450        H455   1.083       .  S
C451        C452   1.413       .  A
C452       Br453   1.923       .  S
C457        C458   1.405       .  A
C457        C462   1.404       .  A
C457        H464   1.084       .  S
C458        C459   1.413       .  A
C459        C460   1.403       .  A
C459       Br466   1.922       .  S
C460        C461   1.406       .  A
C460        H465   1.084       .  S
C461        C462   1.413       .  A
C462       Br463   1.920       .  S
C467       C1044   1.400       .  A
C467       C1048   1.398       .  A
C467        H474   1.084       .  S
C468        C469   1.410   1_565  A
C468       C1043   1.400       .  A
C468        C874   1.476       .  S
C469        C470   1.402       .  A
C469       Br476   1.920       .  S
C470        C471   1.404       .  A
C470        H475   1.083       .  S
C471        C472   1.413   1_545  A
C472       C1043   1.397       .  A
C472      Br1049   1.920       .  S
Br473      C1048   1.921       .  S
C477        C478   1.400       .  A
C477        C482   1.399       .  A
C477        H484   1.083       .  S
C478        C479   1.409       .  A
C479        C480   1.398       .  A
C479       Br486   1.920       .  S
C480        C481   1.402       .  A
C480        H485   1.083       .  S
C481        C482   1.410       .  A
C482       Br483   1.915       .  S
C487        C488   1.413       .  A
C487        C492   1.401       .  A
C487        H494   1.082       .  S
C488        C489   1.411       .  A
C489        C490   1.398       .  A
C489       Br496   1.917       .  S
C490        C491   1.408       .  A
C490        H495   1.084       .  S
C491        C492   1.406       .  A
C492       Br493   1.919       .  S
C497        C498   1.410   1_565  A
C497        C502   1.402       .  A
C497        H504   1.083       .  S
C498        C499   1.421       .  A
C499        C500   1.403       .  A
C499       Br506   1.923       .  S
C500        C501   1.401       .  A
C500        H505   1.084       .  S
C501        C502   1.408   1_545  A
C501        C781   1.485       .  S
C502       Br503   1.920       .  S
C507        C508   1.402       .  A
C507        C512   1.405       .  A
C507        H514   1.083       .  S
C508        C509   1.411       .  A
C509        C510   1.392       .  A
C509       Br516   1.920       .  S
C510        C511   1.403       .  A
C510        H515   1.084       .  S
C511        C512   1.418       .  A
C512       Br513   1.915       .  S
C517        C518   1.398       .  A
C517        C522   1.401       .  A
C517        H524   1.083       .  S
C518        C519   1.409       .  A
C518       C1166   1.468       .  S
C519        C520   1.393       .  A
C519      Br1678   1.917       .  S
C520        C521   1.402       .  A
C520        H525   1.084       .  S
C521        C522   1.418       .  A
C522       Br523   1.913       .  S
Br526      C1671   1.917       .  S
C527        C528   1.401       .  A
C527        C532   1.391       .  A
C527        H534   1.083       .  S
C528        C529   1.406       .  A
C529        C530   1.400       .  A
C529       Br536   1.917       .  S
C530        C531   1.403       .  A
C530        H535   1.083       .  S
C531        C532   1.408       .  A
C532       Br533   1.921       .  S
C537        C538   1.402       .  A
C537        C542   1.393       .  A
C537        H544   1.084       .  S
C538       C1691   1.412       .  A
C539       C1690   1.412       .  A
C539       C1692   1.403       .  A
C539       Br546   1.921       .  S
C540        C541   1.408       .  A
C540       C1691   1.403       .  A
C540       H1697   1.083   1_455  S
C541        C542   1.413       .  A
C542       Br543   1.923       .  S
H545       C1692   1.083       .  S
C547        C548   1.410       .  A
C547        C552   1.397       .  A
C547        H554   1.085       .  S
C548        C549   1.404       .  A
C549        C550   1.397       .  A
C549       Br556   1.915       .  S
C550        C551   1.410       .  A
C550        H555   1.082       .  S
C551        C552   1.411       .  A
C552       Br553   1.919       .  S
C557        C558   1.410       .  A
C557        C562   1.394       .  A
C557        H564   1.079       .  S
C558        C559   1.409       .  A
C559       C1712   1.397       .  A
C559       Br566   1.923       .  S
C560       C1711   1.397   1_455  A
C560       C1713   1.410   1_455  A
C560        H565   1.084       .  S
C561        C562   1.403       .  A
C561       C1712   1.409       .  A
C561       C1155   1.473       .  S
C562       Br563   1.920       .  S
C567        C568   1.403       .  A
C567        C572   1.399       .  A
C567        H574   1.083       .  S
C568        C569   1.412       .  A
C569        C570   1.401       .  A
C569       Br576   1.918       .  S
C570        C571   1.401       .  A
C570        H575   1.084       .  S
C571        C572   1.406       .  A
C572      Br1725   1.919       .  S
Br573      C1724   1.919       .  S
C577        C578   1.412       .  A
C577        C582   1.416       .  A
C577       C1144   1.479       .  S
C578        C579   1.401       .  A
C578        H583   1.083   1_455  S
C579        C580   1.384       .  A
C579       C2289   1.473   1_455  S
C580        C581   1.390       .  A
C580        H584   1.086       .  S
C581        C582   1.406       .  A
C581       C1124   1.481       .  S
C582        H585   1.083       .  S
C586        C587   1.413       .  A
C586        C591   1.415       .  A
C586       C1117   1.485       .  S
C587        C588   1.400       .  A
C587        H592   1.083       .  S
C588        C589   1.388       .  A
C588       C1104   1.464       .  S
C589        C590   1.390       .  A
C589        H593   1.088       .  S
C590        C591   1.401       .  A
C590       C2246   1.468   1_455  S
C591       H1746   1.083   1_455  S
H594       C1743   1.083       .  S
C595        C596   1.411       .  A
C595        C600   1.413       .  A
C595        C618   1.495       .  S
C596        C597   1.409       .  A
C596        H601   1.083       .  S
C597        C598   1.420       .  A
C597        C640   1.504       .  S
C598        C599   1.417       .  A
C598        H602   1.083       .  S
C599        C600   1.410       .  A
C599       C1814   1.507       .  S
C600        H603   1.083       .  S
O604       Cr622   1.946       .  S
O604        C612   1.257       .  A
O605       Cr622   1.963       .  S
O605        C606   1.249       .  A
C606        C634   1.462       .  S
C606        O607   1.261       .  A
O607       Cr623   2.024       .  S
O608       Cr623   2.015       .  S
O608        C609   1.270       .  A
C609       C1074   1.498       .  S
O610       Cr624   1.984       .  S
O611       Cr624   2.069       .  S
C612        C650   1.477       .  S
O613        C621   1.250       .  A
O614       Cr622   1.940       .  S
O614        C615   1.256       .  A
C615       C1134   1.479       .  S
C615        O616   1.279       .  A
O616       Cr623   2.047       .  S
O617       Cr623   1.989       .  S
C618        O619   1.271       .  A
O619       Cr624   2.019       .  S
O620       Cr624   1.996       .  S
O620        C621   1.259       .  A
C621       C1087   1.484       .  S
Cr622       O625   1.761       .  S
Cr623       O625   1.767       .  S
O626       Cr644   1.962       .  S
O626        C634   1.259       .  A
O627       Cr644   1.954       .  S
O627        C628   1.252       .  A
C628        C656   1.490       .  S
C628        O629   1.264       .  A
O629       Cr645   2.052       .  S
O630       Cr645   2.006       .  S
O630        C631   1.270       .  A
C631       C1054   1.466       .  S
C631        O632   1.265       .  A
O632       Cr646   1.974       .  S
O633       Cr646   2.049       .  S
O633        C634   1.273       .  A
O635       Cr644   1.975       .  S
O635        C643   1.249       .  A
O636       Cr644   1.953       .  S
O636        C637   1.259       .  A
C637       C1064   1.490       .  S
C637        O638   1.279       .  A
O638       Cr645   2.045       .  S
O639       Cr645   2.015       .  S
O639        C640   1.270       .  A
C640        O641   1.263       .  A
O641       Cr646   2.002       .  S
O642       Cr646   2.001       .  S
O642        C643   1.260       .  A
C643       C1097   1.479       .  S
Cr644       O647   1.762       .  S
Cr645       O647   1.772       .  S
Cr646       O647   1.783       .  S
O648       Cr666   1.961       .  S
O648        C656   1.252       .  A
O649       Cr666   1.943       .  S
O649        C650   1.255       .  A
O651       Cr667   2.074       .  S
O652       Cr667   1.979       .  S
C653       C1047   1.478       .  S
C653        O654   1.269       .  A
O654       Cr668   2.010       .  S
O655       Cr668   2.060       .  S
O655        C656   1.268       .  A
O657       Cr666   1.947       .  S
O657        C665   1.259       .  A
O658        C659   1.253       .  A
C659       C1107   1.464       .  S
C659        O660   1.256       .  A
O660       Cr667   1.988       .  S
O661       Cr667   2.026       .  S
O661        C662   1.272       .  A
C662       C1751   1.507       .  S
O663       Cr668   2.006       .  S
O664       Cr668   2.044       .  S
O664        C665   1.279       .  A
C665       C1127   1.484       .  S
Cr666       O669   1.753       .  S
Cr668       O669   1.768       .  S
C670        C671   1.419       .  A
C670        C675   1.420       .  A
C670       C1037   1.491       .  S
C671        C672   1.405       .  A
C671        H676   1.083       .  S
C672        C673   1.387       .  A
C672       C1067   1.481       .  S
C673        C674   1.386       .  A
C673        H677   1.086       .  S
C674        C675   1.404       .  A
C674       C1084   1.477       .  S
C675        H678   1.083       .  S
C679        C680   1.411       .  A
C679        C684   1.412       .  A
C679       C1027   1.482       .  S
C680        C681   1.399       .  A
C680        H685   1.083       .  S
C681        C682   1.392       .  A
C681       C1007   1.473       .  S
C682        C683   1.399       .  A
C682        H686   1.086       .  S
C683        C684   1.407       .  A
C683       C1017   1.489       .  S
C684        H687   1.081       .  S
C688        C689   1.413       .  A
C688        C693   1.410       .  A
C688        C994   1.473       .  S
C689        C690   1.406       .  A
C689        H694   1.083       .  S
C690        C691   1.386       .  A
C690        C974   1.477       .  S
C691        C692   1.387       .  A
C691        H695   1.086       .  S
C692        C693   1.398       .  A
C692        C987   1.465       .  S
C693        H696   1.083       .  S
C697        C698   1.421       .  A
C697        C702   1.418       .  A
C697        C720   1.516       .  S
C698        C699   1.421       .  A
C698        H703   1.082       .  S
C699        C700   1.409       .  A
C699        C764   1.510       .  S
C700        C701   1.412       .  A
C700        H704   1.083       .  S
C701        C702   1.416       .  A
C701        C742   1.506       .  S
C702        H705   1.083       .  S
O706      Cr1876   1.965       .  S
O706        C714   1.259       .  A
O707       Cr724   1.946       .  S
O707        C708   1.251       .  A
C708        C736   1.479   1_565  S
C708        O709   1.264       .  A
O709       Cr725   2.038       .  S
O710       Cr725   2.001       .  S
O710        C711   1.272       .  A
C711       C1114   1.479       .  S
C711       O1864   1.267       .  A
O712       Cr726   1.983       .  S
O712       C1863   1.267       .  A
O713       Cr726   2.061       .  S
O713        C714   1.275       .  A
C714        C752   1.472       .  S
O715      Cr1876   1.969       .  S
O715        C723   1.249       .  A
O716       Cr724   1.957       .  S
O716        C717   1.259       .  A
C717       C1014   1.466       .  S
C717        O718   1.275       .  A
O718       Cr725   2.021       .  S
O719       Cr725   2.013       .  S
O719        C720   1.265       .  A
C720        O721   1.267       .  A
O721      Cr1878   2.021   1_455  S
O722       Cr726   2.011       .  S
O722        C723   1.260       .  A
C723        C984   1.479       .  S
Cr724      O1858   1.965   1_455  S
Cr724      O1867   1.970   1_455  S
Cr724       O727   1.767       .  S
Cr725       O727   1.775       .  S
Cr726      O1873   2.021       .  S
Cr726      O1879   1.784       .  S
O727      Cr1878   1.785   1_455  S
O728      Cr1322   1.965       .  S
O728        C736   1.248       .  A
O729        C730   1.264       .  A
C730        C758   1.467       .  S
O731       Cr747   2.047       .  S
O732       Cr747   1.982       .  S
O732       C1885   1.262       .  A
C733       C1147   1.469       .  S
C733       O1884   1.262       .  A
C733        O734   1.263       .  A
O734       Cr748   1.992       .  S
O735       Cr748   2.048       .  S
O737      Cr1898   1.945       .  S
O737        C745   1.256       .  A
O738       Cr746   1.977       .  S
O738        C739   1.248       .  A
C739        C977   1.470       .  S
C739        O740   1.263       .  A
O740       Cr747   2.007       .  S
O741      Cr1899   2.027   1_455  S
O741        C742   1.273       .  A
C742        O743   1.268       .  A
O743       Cr748   1.993       .  S
O744       Cr748   2.049       .  S
O744        C745   1.279       .  A
C745        C967   1.462       .  S
Cr746      O1304   1.965       .  S
Cr746      O1889   1.944       .  S
Cr746      O1901   1.756       .  S
Cr747      O1893   2.026       .  S
Cr747      O1901   1.773       .  S
Cr748       O749   1.779       .  S
O749      Cr1898   1.756       .  S
O749      Cr1899   1.772   1_455  S
O750       Cr768   1.949       .  S
O750        C758   1.255       .  A
O751       Cr768   1.974       .  S
O751        C752   1.251       .  A
C752        O753   1.263       .  A
O753       Cr769   2.034       .  S
O754       Cr769   2.014       .  S
O754        C755   1.270       .  A
C755       C1034   1.486       .  S
C755        O756   1.265       .  A
O756       Cr770   1.986       .  S
O757       Cr770   2.052       .  S
O757        C758   1.276       .  A
O759       Cr768   1.990       .  S
O759        C767   1.254       .  A
O760       Cr768   1.943       .  S
O760        C761   1.256       .  A
C761        C957   1.477       .  S
C761        O762   1.281       .  A
O762       Cr769   2.055       .  S
O763       Cr769   2.009       .  S
O763        C764   1.272       .  A
C764        O765   1.270       .  A
O765       Cr770   2.025       .  S
O766       Cr770   2.000       .  S
O766        C767   1.262       .  A
C767       C1004   1.477       .  S
Cr768       O771   1.764       .  S
Cr769       O771   1.768       .  S
Cr770       O771   1.772       .  S
C772        C773   1.413       .  A
C772        C777   1.410       .  A
C772        C944   1.481       .  S
C773        C774   1.408       .  A
C773        H778   1.083       .  S
C774        C775   1.390       .  A
C774        C954   1.479       .  S
C775        C776   1.387       .  A
C775        H779   1.087       .  S
C776        C777   1.401       .  A
C776        C964   1.467       .  S
C777        H780   1.083       .  S
C781        C782   1.418   1_545  A
C782        C783   1.405   1_556  A
C782        H787   1.083       .  S
C783        C784   1.388   1_565  A
C783        C924   1.481       .  S
C784        H788   1.085       .  S
C785        C786   1.403   1_554  A
C785        C934   1.475       .  S
C786        H789   1.083       .  S
C790        C791   1.407       .  A
C790        C795   1.412       .  A
C790       C1057   1.471       .  S
C791        C792   1.397   1_556  A
C791        H796   1.084       .  S
C792        C793   1.387       .  A
C792        C914   1.468       .  S
C793        C794   1.395       .  A
C793        H797   1.085       .  S
C794        C795   1.406   1_554  A
C794        C907   1.484       .  S
C795        H798   1.083       .  S
C799        C800   1.415       .  A
C799        C804   1.413       .  A
C799        C866   1.505       .  S
C800        C801   1.416       .  A
C800        H805   1.083       .  S
C801        C802   1.417       .  A
C802        C803   1.416       .  A
C802        H806   1.083       .  S
C803        C804   1.415       .  A
C803        C822   1.507       .  S
C804        H807   1.083       .  S
O808       Cr826   1.958       .  S
O808        C816   1.250       .  A
O809       Cr826   1.948       .  S
O809        C810   1.259       .  A
C810        C860   1.474       .  S
C810        O811   1.278       .  A
O811      Cr1979   2.068   1_455  S
O812      Cr1979   1.986       .  S
O812        C813   1.265       .  A
C813       C2149   1.476       .  S
C813        O814   1.269       .  A
O814      Cr1980   2.004       .  S
O815      Cr1980   2.060   1_455  S
O815        C816   1.265       .  A
C816        C832   1.489       .  S
O817       Cr826   1.934   1_655  S
O817       C1977   1.254       .  A
O818       Cr826   1.974       .  S
O818       C1971   1.250   1_455  A
C819        C937   1.484       .  S
C819       O1970   1.250       .  A
C819        O820   1.257       .  A
O820       Cr827   1.997       .  S
O821       Cr827   2.026       .  S
O821        C822   1.272       .  A
C822        O823   1.266       .  A
O823       Cr828   1.999       .  S
O824       Cr828   2.037       .  S
O824        C825   1.279       .  A
C825        C917   1.452       .  S
C825       O1969   1.253       .  A
Cr826       O829   1.760   1_455  S
Cr827      O1963   2.071       .  S
Cr827      O1964   1.984       .  S
Cr827      O1981   1.781       .  S
Cr828      O1966   2.004       .  S
Cr828      O1967   2.058       .  S
Cr828      O1981   1.768       .  S
O829      Cr1979   1.781       .  S
O829      Cr1980   1.768       .  S
O830       Cr848   1.962       .  S
O830        C838   1.263       .  A
O831       Cr848   1.958       .  S
O831        C832   1.250       .  A
C832        O833   1.262       .  A
O833       Cr849   2.052       .  S
O834       Cr849   1.996       .  S
O834        C835   1.268       .  A
C835       C1024   1.480       .  S
C835        O836   1.263       .  A
O836       Cr850   1.979       .  S
O837       Cr850   2.043       .  S
O837        C838   1.273       .  A
C838        C854   1.460       .  S
O839       Cr848   1.976       .  S
O839        C847   1.247       .  A
O840       Cr848   1.951       .  S
O840        C841   1.258       .  A
C841        C894   1.465       .  S
C841        O842   1.278       .  A
O842       Cr849   2.037       .  S
O843       Cr849   2.007       .  S
O843        C844   1.268       .  A
C844        O845   1.271       .  A
O845       Cr850   2.023       .  S
O846       Cr850   2.018       .  S
O846        C847   1.267       .  A
C847        C927   1.477       .  S
Cr848       O851   1.755       .  S
Cr849       O851   1.782       .  S
Cr850       O851   1.778       .  S
O852       Cr870   1.943       .  S
O852        C860   1.252       .  A
O853       Cr870   1.960       .  S
O853        C854   1.249       .  A
C854        O855   1.261       .  A
O855       Cr871   2.024       .  S
O856       Cr871   1.997       .  S
O856        C857   1.265       .  A
C857        C947   1.479       .  S
C857        O858   1.265       .  A
O858       Cr872   1.992       .  S
O859       Cr872   2.066       .  S
O859        C860   1.275       .  A
O861       Cr870   1.989       .  S
O861        C869   1.255       .  A
O862       Cr870   1.955       .  S
O862        C863   1.261       .  A
C863        C904   1.487       .  S
C863        O864   1.276       .  A
O864       Cr871   2.040       .  S
O865       Cr871   2.002       .  S
O865        C866   1.271       .  A
C866        O867   1.274       .  A
O867       Cr872   2.030       .  S
O868       Cr872   1.994       .  S
O868        C869   1.261       .  A
C869        C887   1.462       .  S
Cr870       O873   1.758       .  S
Cr871       O873   1.769       .  S
Cr872       O873   1.773       .  S
C874        C875   1.409       .  A
C875        C876   1.401   1_556  A
C875        H880   1.084       .  S
C876        C877   1.390       .  A
C876        C897   1.470       .  S
C877        H881   1.086       .  S
C878        C879   1.405   1_554  A
C878        C884   1.475       .  S
C879        H882   1.084       .  S
C883        C884   1.410       .  A
C883        C888   1.399       .  A
C883        H890   1.084       .  S
C884        C885   1.412       .  A
C885        C886   1.395       .  A
C885       Br892   1.922       .  S
C886        C887   1.399       .  A
C886        H891   1.084       .  S
C887        C888   1.403       .  A
C888       Br889   1.919       .  S
C893        C894   1.401       .  A
C893        C898   1.395       .  A
C893        H900   1.084       .  S
C894        C895   1.409       .  A
C895        C896   1.396       .  A
C895       Br902   1.921       .  S
C896        C897   1.403       .  A
C896        H901   1.084       .  S
C897        C898   1.410       .  A
C898       Br899   1.921       .  S
C903        C904   1.408       .  A
C903        C908   1.396       .  A
C903        H910   1.083       .  S
C904        C905   1.416       .  A
C905        C906   1.401       .  A
C905       Br912   1.922       .  S
C906        C907   1.408       .  A
C906        H911   1.084       .  S
C907        C908   1.407       .  A
C908       Br909   1.916   1_554  S
C913        C914   1.400       .  A
C913        C918   1.397       .  A
C913        H920   1.083       .  S
C914        C915   1.414       .  A
C915        C916   1.390       .  A
C915       Br922   1.924       .  S
C916        C917   1.395       .  A
C916        H921   1.084       .  S
C917        C918   1.408       .  A
C918      Br2071   1.919       .  S
Br919      C2070   1.919   1_455  S
C923        C924   1.397       .  A
C923        C928   1.400       .  A
C923        H930   1.083       .  S
C924        C925   1.417       .  A
C925        C926   1.396       .  A
C925       Br932   1.922       .  S
C926        C927   1.397       .  A
C926        H931   1.083       .  S
C927        C928   1.421       .  A
C928       Br929   1.920       .  S
C933        C934   1.402       .  A
C933        C938   1.402       .  A
C933        H940   1.084       .  S
C934        C935   1.410       .  A
C935        C936   1.395       .  A
C935       Br942   1.918       .  S
C936        C937   1.405       .  A
C936        H941   1.084       .  S
C937        C938   1.416       .  A
C938      Br2091   1.916       .  S
Br939      C2090   1.916   1_455  S
C943        C944   1.400       .  A
C943        C948   1.398       .  A
C943        H950   1.084       .  S
C944        C945   1.411       .  A
C945        C946   1.403       .  A
C945       Br952   1.918       .  S
C946        C947   1.404       .  A
C946        H951   1.083       .  S
C947        C948   1.412       .  A
C948       Br949   1.919       .  S
C953        C954   1.410       .  A
C953        C958   1.400       .  A
C953        H960   1.084       .  S
C954        C955   1.411       .  A
C955        C956   1.394       .  A
C955       Br962   1.922       .  S
C956        C957   1.404       .  A
C956        H961   1.082       .  S
C957        C958   1.409       .  A
C958       Br959   1.919       .  S
C963        C964   1.404       .  A
C963        C968   1.395       .  A
C963        H970   1.084       .  S
C964        C965   1.410       .  A
C965        C966   1.397       .  A
C965       Br972   1.919       .  S
C966        C967   1.401       .  A
C966        H971   1.084       .  S
C967        C968   1.407       .  A
C968       Br969   1.922       .  S
C973        C974   1.398       .  A
C973        C978   1.394       .  A
C973        H980   1.083       .  S
C974        C975   1.416       .  A
C975        C976   1.397       .  A
C975       Br982   1.921       .  S
C976        C977   1.398       .  A
C976        H981   1.083       .  S
C977        C978   1.416       .  A
C978       Br979   1.915       .  S
C983        C984   1.409       .  A
C983        C988   1.395       .  A
C983        H990   1.083       .  S
C984        C985   1.413       .  A
C985        C986   1.399       .  A
C985      Br2144   1.919       .  S
C986        C987   1.406       .  A
C986       H2143   1.084       .  S
C987        C988   1.402       .  A
C988       Br989   1.916       .  S
H991       C2138   1.084       .  S
Br992      C2137   1.919       .  S
C993        C994   1.399       .  A
C993        C998   1.397       .  A
C993       H1000   1.084       .  S
C994        C995   1.408       .  A
C995        C996   1.402       .  A
C995      Br1002   1.917       .  S
C996        C997   1.404       .  A
C996       H1001   1.084       .  S
C997        C998   1.410       .  A
C997       C1965   1.475       .  S
C998       Br999   1.917       .  S
C1003      C1004   1.409       .  A
C1003      C1008   1.403       .  A
C1003      H1010   1.084       .  S
C1004      C1005   1.411       .  A
C1005      C1006   1.396       .  A
C1005     Br1012   1.923       .  S
C1006      C1007   1.403       .  A
C1006      H1011   1.084       .  S
C1007      C1008   1.399       .  A
C1008     Br1009   1.906   1_565  S
C1013      C1014   1.410       .  A
C1013      C1018   1.407       .  A
C1013      H1020   1.082       .  S
C1014      C1015   1.398       .  A
C1015      C1016   1.380       .  A
C1015     Br1022   1.916       .  S
C1016      C1017   1.409       .  A
C1016      H1021   1.074       .  S
C1017      C1018   1.410       .  A
C1018     Br1019   1.918       .  S
C1023      C1024   1.403       .  A
C1023      C1028   1.396       .  A
C1023      H1030   1.084       .  S
C1024      C1025   1.413       .  A
C1025      C1026   1.401       .  A
C1025     Br1032   1.921       .  S
C1026      C1027   1.405       .  A
C1026      H1031   1.083       .  S
C1027      C1028   1.412       .  A
C1028     Br1029   1.923       .  S
C1033      C1034   1.405       .  A
C1033      C1038   1.404       .  A
C1033      H1040   1.084       .  S
C1034      C1035   1.413       .  A
C1035      C1036   1.402       .  A
C1035     Br1042   1.922       .  S
C1036      C1037   1.406       .  A
C1036      H1041   1.084       .  S
C1037      C1038   1.413       .  A
C1038     Br1039   1.920       .  S
C1043      H1050   1.084       .  S
C1044      C1045   1.411       .  A
C1045      C1046   1.402       .  A
C1045     Br1052   1.920       .  S
C1046      C1047   1.404       .  A
C1046      H1051   1.083       .  S
C1047      C1048   1.414       .  A
C1053      C1054   1.401       .  A
C1053      C1058   1.400       .  A
C1053      H1060   1.083       .  S
C1054      C1055   1.408       .  A
C1055      C1056   1.397       .  A
C1055     Br1062   1.919       .  S
C1056      C1057   1.400       .  A
C1056      H1061   1.083       .  S
C1057      C1058   1.408       .  A
C1058     Br1059   1.918       .  S
C1063      C1064   1.413       .  A
C1063      C1068   1.400       .  A
C1063      H1070   1.082       .  S
C1064      C1065   1.411       .  A
C1065      C1066   1.398       .  A
C1065     Br1072   1.917       .  S
C1066      C1067   1.408       .  A
C1066      H1071   1.084       .  S
C1067      C1068   1.406       .  A
C1068     Br1069   1.919       .  S
C1073      C1074   1.410       .  A
C1073      C1078   1.402       .  A
C1073      H1080   1.083       .  S
C1074      C1075   1.421       .  A
C1075      C1076   1.403       .  A
C1075     Br1082   1.922       .  S
C1076      C1077   1.401       .  A
C1076      H1081   1.084       .  S
C1077      C1078   1.408       .  A
C1078     Br1079   1.920       .  S
C1083      C1084   1.401       .  A
C1083      C1088   1.405       .  A
C1083      H1090   1.083       .  S
C1084      C1085   1.411       .  A
C1085      C1086   1.392       .  A
C1085     Br1092   1.921       .  S
C1086      C1087   1.403       .  A
C1086      H1091   1.084       .  S
C1087      C1088   1.418       .  A
C1088     Br1089   1.915       .  S
C1093      C1094   1.398       .  A
C1093      C1098   1.401       .  A
C1093      H1100   1.083       .  S
C1094      C1095   1.409       .  A
C1094      C1742   1.468       .  S
C1095      C1096   1.393       .  A
C1095     Br2254   1.917       .  S
C1096      C1097   1.402       .  A
C1096      H1101   1.084       .  S
C1097      C1098   1.418       .  A
C1098     Br1099   1.913       .  S
Br1102     C2247   1.917       .  S
C1103      C1104   1.401       .  A
C1103      C1108   1.391       .  A
C1103      H1110   1.083       .  S
C1104      C1105   1.406       .  A
C1105      C1106   1.400       .  A
C1105     Br1112   1.917       .  S
C1106      C1107   1.402       .  A
C1106      H1111   1.083       .  S
C1107      C1108   1.408       .  A
C1108     Br1109   1.922       .  S
C1113      C1114   1.401       .  A
C1113      C1118   1.393       .  A
C1113      H1120   1.084       .  S
C1114      C2267   1.412       .  A
C1115      C2266   1.412       .  A
C1115      C2268   1.403       .  A
C1115     Br1122   1.921       .  S
C1116      C2267   1.403       .  A
C1116      C1117   1.408       .  A
C1116      H2273   1.083   1_455  S
C1117      C1118   1.414       .  A
C1118     Br1119   1.924       .  S
H1121      C2268   1.083       .  S
C1123      C1124   1.410       .  A
C1123      C1128   1.397       .  A
C1123      H1130   1.085       .  S
C1124      C1125   1.405       .  A
C1125      C1126   1.397       .  A
C1125     Br1132   1.915       .  S
C1126      C1127   1.410       .  A
C1126      H1131   1.083       .  S
C1127      C1128   1.411       .  A
C1128     Br1129   1.919       .  S
C1133      C1134   1.411       .  A
C1133      C1138   1.394       .  A
C1133      H1140   1.079       .  S
C1134      C1135   1.409       .  A
C1135      C2288   1.397       .  A
C1135     Br1142   1.923       .  S
C1136      C2287   1.397   1_455  A
C1136      C2289   1.409   1_455  A
C1136      H1141   1.084       .  S
C1137      C2288   1.409       .  A
C1137      C1138   1.402       .  A
C1137      C1731   1.473       .  S
C1138     Br1139   1.920       .  S
C1143      C1144   1.403       .  A
C1143      C1148   1.399       .  A
C1143      H1150   1.083       .  S
C1144      C1145   1.411       .  A
C1145      C1146   1.401       .  A
C1145     Br1152   1.918       .  S
C1146      C1147   1.402       .  A
C1146      H1151   1.084       .  S
C1147      C1148   1.406       .  A
C1148     Br2301   1.919       .  S
Br1149     C2300   1.919       .  S
C1153      C1154   1.412       .  A
C1153      C1158   1.416       .  A
C1153      C1720   1.479       .  S
C1154      C1155   1.401       .  A
C1154      H1159   1.083       .  S
C1155      C1156   1.384       .  A
C1156      C1157   1.390       .  A
C1156      H1160   1.086       .  S
C1157      C1158   1.406       .  A
C1157      C1700   1.481       .  S
C1158      H1161   1.083       .  S
C1162      C1163   1.413       .  A
C1162      C1167   1.415       .  A
C1162      C1693   1.486       .  S
C1163      C1164   1.400       .  A
C1163      H1168   1.083       .  S
C1164      C1165   1.388       .  A
C1164      C1680   1.465       .  S
C1165      C1166   1.390       .  A
C1165      H1169   1.088       .  S
C1166      C1167   1.401       .  A
C1171      C1172   1.411       .  A
C1171      C1176   1.412       .  A
C1171      C1194   1.495       .  S
C1172      C1173   1.409       .  A
C1172      H1177   1.083       .  S
C1173      C1174   1.420       .  A
C1173      C1216   1.504       .  S
C1174      C1175   1.417   1_655  A
C1174      H1178   1.083       .  S
C1175      C1176   1.410   1_455  A
C1176      H1179   1.083       .  S
O1180     Cr1198   1.946       .  S
O1180      C1188   1.257   1_545  A
O1181     Cr1198   1.962       .  S
O1181      C1182   1.249       .  A
C1182      C1210   1.461       .  S
C1182      O1183   1.261       .  A
O1183     Cr1199   2.024       .  S
O1184     Cr1199   2.016       .  S
O1184      C1185   1.271       .  A
C1185      C1650   1.499       .  S
C1185      O1762   1.267   1_545  A
O1186     Cr1200   1.984       .  S
O1186      C1761   1.267       .  A
O1187     Cr1200   2.069       .  S
O1187      C1764   1.278       .  A
C1188      C1226   1.477       .  S
C1188      O1763   1.279       .  A
O1189     Cr1774   1.976       .  S
O1189      C1197   1.250       .  A
O1190     Cr1198   1.940       .  S
O1190      C1191   1.256       .  A
C1191      C1710   1.479       .  S
C1191      O1192   1.280       .  A
O1192     Cr1199   2.048       .  S
O1193     Cr1199   1.988       .  S
O1193      C1770   1.264   1_545  A
C1194      O1769   1.264       .  A
C1194      O1195   1.271       .  A
O1195     Cr1200   2.020       .  S
O1196     Cr1200   1.995       .  S
O1196      C1197   1.259       .  A
C1197      C1663   1.483       .  S
Cr1198     O1765   1.978   1_545  S
Cr1198     O1201   1.761       .  S
Cr1199     O1201   1.767       .  S
Cr1200     O1777   1.778       .  S
O1201     Cr1776   1.777   1_545  S
O1202     Cr1220   1.962       .  S
O1202      C1210   1.258       .  A
O1203     Cr1220   1.954       .  S
O1203      C1204   1.252       .  A
C1204      C1232   1.491       .  S
C1204      O1205   1.265       .  A
O1205     Cr1221   2.053       .  S
O1206     Cr1221   2.008       .  S
O1206      C1207   1.271       .  A
C1207      C1630   1.466       .  S
C1207      O1208   1.265       .  A
O1208     Cr1222   1.976       .  S
O1209     Cr1222   2.048       .  S
O1209      C1210   1.272       .  A
O1211     Cr1220   1.975       .  S
O1211      C1219   1.249       .  A
O1212     Cr1220   1.954       .  S
O1212      C1213   1.259       .  A
C1213      C1640   1.489       .  S
C1213      O1214   1.279       .  A
O1214     Cr1221   2.044       .  S
O1215     Cr1221   2.014       .  S
O1215      C1216   1.269       .  A
C1216      O1217   1.264       .  A
O1217     Cr1222   2.004       .  S
O1218     Cr1222   2.001       .  S
O1218      C1219   1.261       .  A
C1219      C1673   1.479       .  S
Cr1220     O1223   1.761       .  S
Cr1221     O1223   1.772       .  S
Cr1222     O1223   1.782       .  S
O1224     Cr1242   1.961       .  S
O1224      C1232   1.252       .  A
O1225     Cr1242   1.944       .  S
O1225      C1226   1.255   1_545  A
C1226      O1803   1.278       .  A
O1227     Cr1243   2.075       .  S
O1227      C1802   1.278       .  A
O1228     Cr1243   1.980       .  S
O1228      C1805   1.264       .  A
C1229      C1623   1.478       .  S
C1229      O1804   1.264   1_545  A
C1229      O1230   1.270       .  A
O1230     Cr1244   2.010       .  S
O1231     Cr1244   2.061       .  S
O1231      C1232   1.268       .  A
O1233     Cr1242   1.947       .  S
O1233      C1241   1.259       .  A
O1234     Cr1818   1.989       .  S
O1234      C1235   1.253       .  A
C1235      C1683   1.464       .  S
C1235      O1236   1.256       .  A
O1236     Cr1243   1.988       .  S
O1237     Cr1243   2.027       .  S
O1237      C1238   1.272       .  A
C1238      O1815   1.270       .  A
O1239     Cr1244   2.007       .  S
O1239      C1814   1.271   1_545  A
O1240     Cr1244   2.045       .  S
O1240      C1241   1.279       .  A
C1241      C1703   1.484       .  S
Cr1242     O1810   1.988   1_545  S
Cr1242     O1245   1.753       .  S
Cr1243     O1821   1.776       .  S
Cr1244     O1245   1.769       .  S
O1245     Cr1819   1.777   1_545  S
C1246      C1247   1.419       .  A
C1246      C1251   1.419       .  A
C1246      C1613   1.490       .  S
C1247      C1248   1.404       .  A
C1247      H1252   1.083       .  S
C1248      C1249   1.387       .  A
C1248      C1643   1.481       .  S
C1249      C1250   1.386       .  A
C1249      H1253   1.086       .  S
C1250      C1251   1.404       .  A
C1250      C1660   1.477       .  S
C1251      H1254   1.083       .  S
C1255      C1256   1.411       .  A
C1255      C1260   1.413       .  A
C1255      C1603   1.483       .  S
C1256      C1257   1.400       .  A
C1256      H1261   1.083       .  S
C1257      C1258   1.392       .  A
C1257      C1583   1.473       .  S
C1258      C1259   1.399       .  A
C1258      H1262   1.086       .  S
C1259      C1260   1.407       .  A
C1259      C1593   1.489       .  S
C1260      H1263   1.081       .  S
C1264      C1265   1.413       .  A
C1264      C1269   1.411       .  A
C1264      C1570   1.474       .  S
C1265      C1266   1.407       .  A
C1265      H1270   1.083       .  S
C1266      C1267   1.386       .  A
C1266      C1550   1.477       .  S
C1267      C1268   1.387       .  A
C1267      H1271   1.086       .  S
C1268      C1269   1.398       .  A
C1268      C1563   1.466       .  S
C1269      H1272   1.083       .  S
C1273      C1274   1.421       .  A
C1273      C1278   1.418       .  A
C1273      C1296   1.516       .  S
C1274      C1275   1.421       .  A
C1274      H1279   1.082       .  S
C1275      C1276   1.409       .  A
C1275      C1340   1.510       .  S
C1276      C1277   1.412       .  A
C1276      H1280   1.083       .  S
C1277      C1278   1.415       .  A
C1277      C1318   1.506       .  S
C1278      H1281   1.083       .  S
O1282      C1290   1.259       .  A
O1283     Cr1300   1.945       .  S
O1283      C1284   1.251       .  A
C1284      C1312   1.479       .  S
C1284      O1285   1.264       .  A
O1285     Cr1301   2.038       .  S
O1286     Cr1301   2.002       .  S
O1286      C1287   1.272       .  A
C1287      C1690   1.480       .  S
O1288     Cr1302   1.983   1_455  S
O1289     Cr1302   2.061       .  S
O1289      C1290   1.275       .  A
C1290      C1328   1.472       .  S
O1291      C1299   1.249       .  A
O1292     Cr1300   1.957       .  S
O1292      C1293   1.259       .  A
C1293      C1590   1.467       .  S
C1293      O1294   1.275       .  A
O1294     Cr1301   2.022       .  S
O1295     Cr1301   2.013       .  S
O1295      C1296   1.265       .  A
C1296      O1297   1.267       .  A
O1298     Cr1302   2.011       .  S
O1298      C1299   1.260       .  A
C1299      C1560   1.479       .  S
Cr1300     O1303   1.767       .  S
Cr1301     O1303   1.775       .  S
O1304      C1312   1.248       .  A
O1305     Cr1898   1.954   1_655  S
O1305      C1306   1.264       .  A
C1306      C1334   1.467       .  S
C1306      O1883   1.277       .  A
O1307     Cr1323   2.047       .  S
O1307      C1882   1.277   1_545  A
O1308     Cr1323   1.982   1_455  S
C1309      C1723   1.469       .  S
C1309      O1310   1.264       .  A
O1310     Cr1324   1.993       .  S
O1311     Cr1324   2.048       .  S
O1311      C1888   1.259       .  A
C1312      O1887   1.259       .  A
O1313      C1321   1.256       .  A
O1314     Cr1322   1.977   1_655  S
O1314      C1315   1.248       .  A
C1315      C1553   1.471       .  S
C1315      O1316   1.263       .  A
O1316     Cr1323   2.008       .  S
O1317      C1318   1.273       .  A
C1318      O1319   1.268       .  A
O1319     Cr1324   1.992       .  S
O1320     Cr1324   2.049       .  S
O1320      C1321   1.279       .  A
C1321      C1543   1.462       .  S
Cr1322     O1881   1.954   1_445  S
Cr1324     O1325   1.779       .  S
O1326     Cr1344   1.949       .  S
O1326      C1334   1.255       .  A
O1327     Cr1344   1.974       .  S
O1327      C1328   1.251       .  A
C1328      O1329   1.263       .  A
O1329     Cr1345   2.034       .  S
O1330     Cr1345   2.014       .  S
O1330      C1331   1.270       .  A
C1331      C1610   1.485       .  S
C1331      O1332   1.265       .  A
O1332     Cr1346   1.986       .  S
O1333     Cr1346   2.052       .  S
O1333      C1334   1.276       .  A
O1335     Cr1344   1.990       .  S
O1335      C1343   1.254       .  A
O1336     Cr1344   1.942       .  S
O1336      C1337   1.256       .  A
C1337      C1533   1.476       .  S
C1337      O1338   1.281       .  A
O1338     Cr1345   2.055       .  S
O1339     Cr1345   2.009       .  S
O1339      C1340   1.272       .  A
C1340      O1341   1.270       .  A
O1341     Cr1346   2.026       .  S
O1342     Cr1346   2.000       .  S
O1342      C1343   1.262       .  A
C1343      C1580   1.477       .  S
Cr1344     O1347   1.764       .  S
Cr1345     O1347   1.768       .  S
Cr1346     O1347   1.771       .  S
C1348      C1349   1.413       .  A
C1348      C1353   1.410       .  A
C1348      C1520   1.481       .  S
C1349      C1350   1.408       .  A
C1349      H1354   1.083       .  S
C1350      C1351   1.390       .  A
C1350      C1530   1.479       .  S
C1351      C1352   1.386       .  A
C1351      H1355   1.087       .  S
C1352      C1353   1.401       .  A
C1352      C1540   1.467       .  S
C1353      H1356   1.083       .  S
C1357      C1358   1.418       .  A
C1357      C1938   1.416       .  A
C1357      C2229   1.485       .  S
C1358      C1359   1.405   1_556  A
C1358      H1363   1.083       .  S
C1359      C1360   1.387       .  A
C1359      C1500   1.481       .  S
C1360      C1937   1.386       .  A
C1360      H1364   1.085       .  S
C1361      C1936   1.386       .  A
C1361      C1362   1.403   1_554  A
C1361      C1510   1.475       .  S
C1362      C1933   1.416       .  A
C1362      H1365   1.083       .  S
C1366      C1367   1.407       .  A
C1366      C1371   1.412       .  A
C1366      C1633   1.470       .  S
C1367      C1368   1.397   1_556  A
C1367      H1372   1.084       .  S
C1368      C1369   1.388       .  A
C1368      C1490   1.467       .  S
C1369      C1370   1.395       .  A
C1369      H1373   1.085       .  S
C1370      C1371   1.405   1_554  A
C1370      C1483   1.483       .  S
C1371      H1374   1.083       .  S
C1375      C1376   1.415       .  A
C1375      C1380   1.413       .  A
C1375      C1442   1.504       .  S
C1376      C1377   1.416       .  A
C1376      H1381   1.083       .  S
C1377      C1378   1.417       .  A
C1377      C1996   1.510   1_545  S
C1378      C1379   1.415       .  A
C1378      H1382   1.083       .  S
C1379      C1380   1.414       .  A
C1379      C1398   1.506       .  S
C1380      H1383   1.083       .  S
O1384     Cr1402   1.958       .  S
O1384      C1392   1.250       .  A
O1385     Cr1402   1.946       .  S
O1385      C1386   1.259       .  A
C1386      C1436   1.474       .  S
C1386      O1387   1.278       .  A
O1388      C1389   1.265       .  A
C1389      O1390   1.270       .  A
O1391      C1392   1.265       .  A
C1392      C1408   1.489       .  S
O1393     Cr1402   1.934       .  S
O1394     Cr1402   1.975       .  S
C1395      C1513   1.484       .  S
C1395      O1396   1.257       .  A
O1396     Cr1403   1.996       .  S
O1397     Cr1403   2.025       .  S
O1397      C1398   1.272       .  A
C1398      O1399   1.266       .  A
O1399     Cr1404   1.999       .  S
O1400     Cr1404   2.038       .  S
O1400      C1401   1.279       .  A
C1401      C1493   1.452       .  S
Cr1402     O1405   1.759       .  S
O1406     Cr1424   1.962       .  S
O1406      C1414   1.263       .  A
O1407     Cr1424   1.960       .  S
O1407      C1408   1.250       .  A
C1408      O1409   1.262       .  A
O1409     Cr1425   2.052       .  S
O1410     Cr1425   1.996       .  S
O1410      C1411   1.268       .  A
C1411      C1600   1.481       .  S
C1411      O1412   1.263       .  A
O1412     Cr1426   1.980       .  S
O1413     Cr1426   2.044       .  S
O1413      C1414   1.274       .  A
C1414      C1430   1.461       .  S
O1415     Cr1424   1.977       .  S
O1415      C1423   1.247       .  A
O1416     Cr1424   1.951       .  S
O1416      C1417   1.258       .  A
C1417      C1470   1.464       .  S
C1417      O1418   1.278       .  A
O1418     Cr1425   2.037       .  S
O1419     Cr1425   2.006       .  S
O1419      C1420   1.268       .  A
C1420      C1953   1.512       .  S
C1420      O1421   1.271       .  A
O1421     Cr1426   2.025       .  S
O1422     Cr1426   2.017       .  S
O1422      C1423   1.267       .  A
C1423      C1503   1.477       .  S
Cr1424     O1427   1.756       .  S
Cr1425     O1427   1.782       .  S
Cr1426     O1427   1.777       .  S
O1428     Cr1446   1.943       .  S
O1428      C1436   1.252       .  A
O1429     Cr1446   1.960       .  S
O1429      C1430   1.250       .  A
C1430      O1431   1.261       .  A
O1431     Cr1447   2.025       .  S
O1432     Cr1447   1.998       .  S
O1432      C1433   1.265       .  A
C1433      C1523   1.479       .  S
C1433      O1434   1.265       .  A
O1434     Cr1448   1.991       .  S
O1435     Cr1448   2.065       .  S
O1435      C1436   1.274       .  A
O1437     Cr1446   1.989       .  S
O1437      C1445   1.255       .  A
O1438     Cr1446   1.957       .  S
O1438      C1439   1.262       .  A
C1439      C1480   1.487       .  S
C1439      O1440   1.276       .  A
O1440     Cr1447   2.039       .  S
O1441     Cr1447   2.001       .  S
O1441      C1442   1.271       .  A
C1442      O1443   1.274       .  A
O1443     Cr1448   2.029       .  S
O1444     Cr1448   1.993       .  S
O1444      C1445   1.261       .  A
C1445      C1463   1.462       .  S
Cr1446     O1449   1.758       .  S
Cr1447     O1449   1.769       .  S
Cr1448     O1449   1.774       .  S
C1450      C1451   1.409       .  A
C1450      C2031   1.410       .  A
C1450      C2196   1.477       .  S
C1451      C1452   1.401   1_556  A
C1451      H1456   1.084       .  S
C1452      C1453   1.390       .  A
C1452      C1473   1.469       .  S
C1453      C2030   1.389       .  A
C1453      H1457   1.086       .  S
C1454      C2029   1.390   1_545  A
C1454      C1455   1.404   1_554  A
C1454      C1460   1.475       .  S
C1455      C2026   1.410   1_545  A
C1455      H1458   1.084       .  S
C1459      C1460   1.409       .  A
C1459      C1464   1.399       .  A
C1459      H1466   1.084       .  S
C1460      C1461   1.412       .  A
C1461      C1462   1.395       .  A
C1461     Br1468   1.921       .  S
C1462      C1463   1.399       .  A
C1462      H1467   1.084       .  S
C1463      C1464   1.403       .  A
C1464     Br1465   1.919       .  S
C1469      C1470   1.400       .  A
C1469      C1474   1.395       .  A
C1469      H1476   1.084       .  S
C1470      C1471   1.409       .  A
C1471      C1472   1.396       .  A
C1471     Br1478   1.921       .  S
C1472      C1473   1.403       .  A
C1472      H1477   1.084       .  S
C1473      C1474   1.410       .  A
C1474     Br1475   1.921       .  S
C1479      C1480   1.408       .  A
C1479      C1484   1.397       .  A
C1479      H1486   1.083       .  S
C1480      C1481   1.416       .  A
C1481      C1482   1.400       .  A
C1481     Br1488   1.922       .  S
C1482      C1483   1.408       .  A
C1482      H1487   1.084       .  S
C1483      C1484   1.409       .  A
C1484     Br1485   1.918   1_554  S
C1489      C1490   1.400       .  A
C1489      C1494   1.398       .  A
C1489      H1496   1.083       .  S
C1490      C1491   1.414       .  A
C1491      C1492   1.390       .  A
C1491     Br1498   1.924       .  S
C1492      C1493   1.395       .  A
C1492      H1497   1.084       .  S
C1493      C1494   1.408       .  A
C1499      C1500   1.397       .  A
C1499      C1504   1.400       .  A
C1499      H1506   1.083       .  S
C1500      C1501   1.417       .  A
C1501      C1502   1.396       .  A
C1501     Br1508   1.922       .  S
C1502      C1503   1.397       .  A
C1502      H1507   1.083       .  S
C1503      C1504   1.421       .  A
C1504     Br1505   1.920       .  S
C1509      C1510   1.402       .  A
C1509      C1514   1.402       .  A
C1509      H1516   1.084       .  S
C1510      C1511   1.410       .  A
C1511      C1512   1.395       .  A
C1511     Br1518   1.918       .  S
C1512      C1513   1.405       .  A
C1512      H1517   1.084       .  S
C1513      C1514   1.416       .  A
C1519      C1520   1.400       .  A
C1519      C1524   1.398       .  A
C1519      H1526   1.084       .  S
C1520      C1521   1.411       .  A
C1521      C1522   1.403       .  A
C1521     Br1528   1.918       .  S
C1522      C1523   1.404       .  A
C1522      H1527   1.083       .  S
C1523      C1524   1.412       .  A
C1524     Br1525   1.919       .  S
C1529      C1530   1.410       .  A
C1529      C1534   1.400       .  A
C1529      H1536   1.084       .  S
C1530      C1531   1.411       .  A
C1531      C1532   1.394       .  A
C1531     Br1538   1.922       .  S
C1532      C1533   1.404       .  A
C1532      H1537   1.082       .  S
C1533      C1534   1.409       .  A
C1534     Br1535   1.919       .  S
C1539      C1540   1.404       .  A
C1539      C1544   1.395       .  A
C1539      H1546   1.084       .  S
C1540      C1541   1.410       .  A
C1541      C1542   1.397       .  A
C1541     Br1548   1.919       .  S
C1542      C1543   1.401       .  A
C1542      H1547   1.084       .  S
C1543      C1544   1.407       .  A
C1544     Br1545   1.922       .  S
C1549      C1550   1.398       .  A
C1549      C1554   1.395       .  A
C1549      H1556   1.083       .  S
C1550      C1551   1.416       .  A
C1551      C1552   1.397       .  A
C1551     Br1558   1.921       .  S
C1552      C1553   1.398       .  A
C1552      H1557   1.083       .  S
C1553      C1554   1.416       .  A
C1554     Br1555   1.915   1_655  S
C1559      C1560   1.409       .  A
C1559      C1564   1.395       .  A
C1559      H1566   1.083       .  S
C1560      C1561   1.413   1_655  A
C1561      C1562   1.399       .  A
C1562      C1563   1.406   1_455  A
C1563      C1564   1.402       .  A
C1564     Br1565   1.916       .  S
C1569      C1570   1.399       .  A
C1569      C1574   1.398       .  A
C1569      H1576   1.084       .  S
C1570      C1571   1.408       .  A
C1571      C1572   1.403   1_655  A
C1571     Br1578   1.917   1_655  S
C1572      C1573   1.404   1_455  A
C1572      H1577   1.084       .  S
C1573      C1574   1.411       .  A
C1574     Br1575   1.917       .  S
C1579      C1580   1.409       .  A
C1579      C1584   1.403       .  A
C1579      H1586   1.084       .  S
C1580      C1581   1.411       .  A
C1581      C1582   1.396       .  A
C1581     Br1588   1.923       .  S
C1582      C1583   1.403       .  A
C1582      H1587   1.084       .  S
C1583      C1584   1.399       .  A
C1584     Br1585   1.906       .  S
C1589      C1590   1.410       .  A
C1589      C1594   1.407       .  A
C1589      H1596   1.082       .  S
C1590      C1591   1.399       .  A
C1591      C1592   1.381       .  A
C1591     Br1598   1.915       .  S
C1592      C1593   1.409       .  A
C1592      H1597   1.075       .  S
C1593      C1594   1.410       .  A
C1594     Br1595   1.918       .  S
C1599      C1600   1.404       .  A
C1599      C1604   1.396       .  A
C1599      H1606   1.084       .  S
C1600      C1601   1.413       .  A
C1601      C1602   1.401       .  A
C1601     Br1608   1.921       .  S
C1602      C1603   1.405       .  A
C1602      H1607   1.083       .  S
C1603      C1604   1.412       .  A
C1604     Br1605   1.923       .  S
C1609      C1610   1.405       .  A
C1609      C1614   1.403       .  A
C1609      H1616   1.084       .  S
C1610      C1611   1.413       .  A
C1611      C1612   1.402       .  A
C1611     Br1618   1.922       .  S
C1612      C1613   1.405       .  A
C1612      H1617   1.084       .  S
C1613      C1614   1.413       .  A
C1614     Br1615   1.920       .  S
C1619      C2196   1.400       .  A
C1619      C2200   1.397       .  A
C1619      H1626   1.084       .  S
C1620      C2195   1.400       .  A
C1620      C1621   1.411   1_565  A
C1620      C2026   1.478       .  S
C1621      C1622   1.402       .  A
C1621     Br1628   1.920       .  S
C1622      C1623   1.404       .  A
C1622      H1627   1.083       .  S
C1623      C1624   1.413   1_545  A
C1624      C2195   1.398       .  A
C1624     Br2201   1.920       .  S
Br1625     C2200   1.921       .  S
C1629      C1630   1.401       .  A
C1629      C1634   1.400       .  A
C1629      H1636   1.083       .  S
C1630      C1631   1.408       .  A
C1631      C1632   1.397       .  A
C1631     Br1638   1.919       .  S
C1632      C1633   1.399       .  A
C1632      H1637   1.083       .  S
C1633      C1634   1.409       .  A
C1634     Br1635   1.919       .  S
C1639      C1640   1.413       .  A
C1639      C1644   1.401       .  A
C1639      H1646   1.082       .  S
C1640      C1641   1.411       .  A
C1641      C1642   1.398       .  A
C1641     Br1648   1.917       .  S
C1642      C1643   1.408       .  A
C1642      H1647   1.084       .  S
C1643      C1644   1.406       .  A
C1644     Br1645   1.919       .  S
C1649      C1650   1.410   1_565  A
C1649      C1654   1.402       .  A
C1649      H1656   1.083       .  S
C1650      C1651   1.421       .  A
C1651      C1652   1.403       .  A
C1651     Br1658   1.922       .  S
C1652      C1653   1.401   1_545  A
C1652      H1657   1.084       .  S
C1653      C1654   1.408       .  A
C1653      C1933   1.485   1_565  S
C1654     Br1655   1.920       .  S
C1659      C1660   1.401       .  A
C1659      C1664   1.405       .  A
C1659      H1666   1.083       .  S
C1660      C1661   1.411       .  A
C1661      C1662   1.392       .  A
C1661     Br1668   1.921       .  S
C1662      C1663   1.403       .  A
C1662      H1667   1.084       .  S
C1663      C1664   1.418       .  A
C1664     Br1665   1.915       .  S
C1669      C1670   1.398       .  A
C1669      C1674   1.401       .  A
C1669      H1676   1.083       .  S
C1670      C1671   1.409       .  A
C1671      C1672   1.393       .  A
C1672      C1673   1.402       .  A
C1672      H1677   1.084       .  S
C1673      C1674   1.418       .  A
C1674     Br1675   1.913       .  S
C1679      C1680   1.401       .  A
C1679      C1684   1.391       .  A
C1679      H1686   1.082       .  S
C1680      C1681   1.406       .  A
C1681      C1682   1.400       .  A
C1681     Br1688   1.917       .  S
C1682      C1683   1.402       .  A
C1682      H1687   1.083       .  S
C1683      C1684   1.408       .  A
C1684     Br1685   1.922       .  S
C1689      C1690   1.402       .  A
C1689      C1694   1.394       .  A
C1689      H1696   1.084       .  S
C1691     Br1698   1.921   1_455  S
C1692      C1693   1.408       .  A
C1693      C1694   1.414       .  A
C1694     Br1695   1.923       .  S
C1699      C1700   1.410       .  A
C1699      C1704   1.397       .  A
C1699      H1706   1.085       .  S
C1700      C1701   1.405       .  A
C1701      C1702   1.397       .  A
C1701     Br1708   1.915       .  S
C1702      C1703   1.410       .  A
C1702      H1707   1.082       .  S
C1703      C1704   1.411       .  A
C1704     Br1705   1.919       .  S
C1709      C1710   1.411       .  A
C1709      C1714   1.394       .  A
C1709      H1716   1.079       .  S
C1710      C1711   1.409       .  A
C1711     Br1718   1.922   1_655  S
C1712      H1717   1.084       .  S
C1713      C1714   1.402       .  A
C1714     Br1715   1.920       .  S
C1719      C1720   1.403       .  A
C1719      C1724   1.399       .  A
C1719      H1726   1.083       .  S
C1720      C1721   1.411       .  A
C1721      C1722   1.401       .  A
C1721     Br1728   1.918       .  S
C1722      C1723   1.402       .  A
C1722      H1727   1.084       .  S
C1723      C1724   1.406       .  A
C1729      C1730   1.412       .  A
C1729      C1734   1.416       .  A
C1729      C2296   1.479       .  S
C1730      C1731   1.401       .  A
C1730      H1735   1.083       .  S
C1731      C1732   1.384       .  A
C1732      C1733   1.390       .  A
C1732      H1736   1.086       .  S
C1733      C1734   1.405       .  A
C1733      C2276   1.479       .  S
C1734      H1737   1.083       .  S
C1738      C1739   1.413       .  A
C1738      C1743   1.414       .  A
C1738      C2269   1.485       .  S
C1739      C1740   1.400       .  A
C1739      H1744   1.083       .  S
C1740      C1741   1.388       .  A
C1740      C2256   1.465       .  S
C1741      C1742   1.390       .  A
C1741      H1745   1.088       .  S
C1742      C1743   1.401       .  A
C1747      C1748   1.411       .  A
C1747      C1752   1.413       .  A
C1747      C1770   1.495       .  S
C1748      C1749   1.409       .  A
C1748      H1753   1.083       .  S
C1749      C1750   1.420       .  A
C1749      C1792   1.503       .  S
C1750      C1751   1.417   1_655  A
C1750      H1754   1.083       .  S
C1751      C1752   1.411   1_455  A
C1752      H1755   1.083       .  S
O1756     Cr1774   1.948       .  S
O1756      C1764   1.258       .  A
O1757     Cr1774   1.963       .  S
O1757      C1758   1.249       .  A
C1758      C1786   1.462       .  S
C1758      O1759   1.261       .  A
O1759     Cr1775   2.024       .  S
O1760     Cr1775   2.013       .  S
O1760      C1761   1.270       .  A
C1761      C2226   1.498       .  S
O1762     Cr1776   1.983       .  S
O1763     Cr1776   2.070       .  S
C1764      C1802   1.477       .  S
O1765      C1773   1.250       .  A
O1766     Cr1774   1.943       .  S
O1766      C1767   1.257       .  A
C1767      C2286   1.479       .  S
C1767      O1768   1.279       .  A
O1768     Cr1775   2.045       .  S
O1769     Cr1775   1.989       .  S
C1770      O1771   1.271       .  A
O1771     Cr1776   2.020       .  S
O1772     Cr1776   1.995       .  S
O1772      C1773   1.258       .  A
C1773      C2239   1.484       .  S
Cr1774     O1777   1.761       .  S
Cr1775     O1777   1.767       .  S
O1778     Cr1796   1.962       .  S
O1778      C1786   1.258       .  A
O1779     Cr1796   1.954       .  S
O1779      C1780   1.252       .  A
C1780      C1808   1.489       .  S
C1780      O1781   1.264       .  A
O1781     Cr1797   2.051       .  S
O1782     Cr1797   2.007       .  S
O1782      C1783   1.271       .  A
C1783      C2206   1.470       .  S
C1783      O1784   1.266       .  A
O1784     Cr1798   1.973       .  S
O1785     Cr1798   2.050       .  S
O1785      C1786   1.273       .  A
O1787     Cr1796   1.975       .  S
O1787      C1795   1.249       .  A
O1788     Cr1796   1.952       .  S
O1788      C1789   1.259       .  A
C1789      C2216   1.490       .  S
C1789      O1790   1.280       .  A
O1790     Cr1797   2.047       .  S
O1791     Cr1797   2.016       .  S
O1791      C1792   1.270       .  A
C1792      O1793   1.263       .  A
O1793     Cr1798   2.002       .  S
O1794     Cr1798   2.002       .  S
O1794      C1795   1.261       .  A
C1795      C2249   1.480       .  S
Cr1796     O1799   1.762       .  S
Cr1797     O1799   1.772       .  S
Cr1798     O1799   1.784       .  S
O1800     Cr1818   1.961       .  S
O1800      C1808   1.252       .  A
O1801     Cr1818   1.943       .  S
O1801      C1802   1.255       .  A
O1803     Cr1819   2.073       .  S
O1804     Cr1819   1.980       .  S
C1805      C2199   1.476       .  S
C1805      O1806   1.269       .  A
O1806     Cr1820   2.008       .  S
O1807     Cr1820   2.059       .  S
O1807      C1808   1.268       .  A
O1809     Cr1818   1.945       .  S
O1809      C1817   1.259       .  A
O1810      C1811   1.252       .  A
C1811      C2259   1.464       .  S
C1811      O1812   1.256       .  A
O1812     Cr1819   1.989       .  S
O1813     Cr1819   2.025       .  S
O1813      C1814   1.272       .  A
O1815     Cr1820   2.006       .  S
O1816     Cr1820   2.043       .  S
O1816      C1817   1.279       .  A
C1817      C2279   1.482       .  S
Cr1818     O1821   1.753       .  S
Cr1820     O1821   1.768       .  S
C1822      C1823   1.419       .  A
C1822      C1827   1.420       .  A
C1822      C2189   1.491       .  S
C1823      C1824   1.405       .  A
C1823      H1828   1.083       .  S
C1824      C1825   1.387       .  A
C1824      C2219   1.480       .  S
C1825      C1826   1.386       .  A
C1825      H1829   1.086       .  S
C1826      C1827   1.405       .  A
C1826      C2236   1.479       .  S
C1827      H1830   1.083       .  S
C1831      C1832   1.412       .  A
C1831      C1836   1.412       .  A
C1831      C2179   1.484       .  S
C1832      C1833   1.400       .  A
C1832      H1837   1.083       .  S
C1833      C1834   1.392       .  A
C1833      C2159   1.474       .  S
C1834      C1835   1.399       .  A
C1834      H1838   1.086       .  S
C1835      C1836   1.407       .  A
C1835      C2169   1.489       .  S
C1836      H1839   1.081       .  S
C1840      C1841   1.413       .  A
C1840      C1845   1.411       .  A
C1840      C2146   1.474       .  S
C1841      C1842   1.407       .  A
C1841      H1846   1.083       .  S
C1842      C1843   1.386       .  A
C1842      C2126   1.477       .  S
C1843      C1844   1.387       .  A
C1843      H1847   1.086       .  S
C1844      C1845   1.399       .  A
C1844      C2139   1.466       .  S
C1845      H1848   1.083       .  S
C1849      C1850   1.421       .  A
C1849      C1854   1.418       .  A
C1849      C1872   1.516       .  S
C1850      C1851   1.421       .  A
C1850      H1855   1.082       .  S
C1851      C1852   1.409       .  A
C1851      C1916   1.510       .  S
C1852      C1853   1.411       .  A
C1852      H1856   1.083       .  S
C1853      C1854   1.415       .  A
C1853      C1894   1.506       .  S
C1854      H1857   1.083       .  S
O1858      C1866   1.259       .  A
O1859     Cr1876   1.944       .  S
O1859      C1860   1.251       .  A
C1860      C1888   1.479   1_565  S
C1860      O1861   1.264       .  A
O1861     Cr1877   2.038       .  S
O1862     Cr1877   2.001       .  S
O1862      C1863   1.272       .  A
C1863      C2266   1.478       .  S
O1864     Cr1878   1.983   1_455  S
O1865     Cr1878   2.060       .  S
O1865      C1866   1.275       .  A
C1866      C1904   1.472       .  S
O1867      C1875   1.249       .  A
O1868     Cr1876   1.957       .  S
O1868      C1869   1.259       .  A
C1869      C2166   1.466       .  S
C1869      O1870   1.275       .  A
O1870     Cr1877   2.020       .  S
O1871     Cr1877   2.013       .  S
O1871      C1872   1.265       .  A
C1872      O1873   1.267       .  A
O1874     Cr1878   2.010       .  S
O1874      C1875   1.260       .  A
C1875      C2136   1.479       .  S
Cr1876     O1879   1.767       .  S
Cr1877     O1879   1.775       .  S
O1880      C1888   1.248       .  A
O1881      C1882   1.264       .  A
C1882      C1910   1.467       .  S
O1883     Cr1899   2.047       .  S
O1884     Cr1899   1.984   1_455  S
C1885      C2299   1.468       .  S
C1885      O1886   1.264       .  A
O1886     Cr1900   1.992       .  S
O1887     Cr1900   2.048       .  S
O1889      C1897   1.256       .  A
O1890     Cr1898   1.977   1_655  S
O1890      C1891   1.248       .  A
C1891      C2129   1.471       .  S
C1891      O1892   1.263       .  A
O1892     Cr1899   2.008       .  S
O1893      C1894   1.272       .  A
C1894      O1895   1.268       .  A
O1895     Cr1900   1.994       .  S
O1896     Cr1900   2.048       .  S
O1896      C1897   1.279       .  A
C1897      C2119   1.462       .  S
Cr1900     O1901   1.779       .  S
O1902     Cr1920   1.948       .  S
O1902      C1910   1.254       .  A
O1903     Cr1920   1.974       .  S
O1903      C1904   1.251       .  A
C1904      O1905   1.263       .  A
O1905     Cr1921   2.034       .  S
O1906     Cr1921   2.015       .  S
O1906      C1907   1.270       .  A
C1907      C2186   1.486       .  S
C1907      O1908   1.265       .  A
O1908     Cr1922   1.987       .  S
O1909     Cr1922   2.052       .  S
O1909      C1910   1.276       .  A
O1911     Cr1920   1.991       .  S
O1911      C1919   1.255       .  A
O1912     Cr1920   1.941       .  S
O1912      C1913   1.256       .  A
C1913      C2109   1.476       .  S
C1913      O1914   1.281       .  A
O1914     Cr1921   2.055       .  S
O1915     Cr1921   2.008       .  S
O1915      C1916   1.272       .  A
C1916      O1917   1.270       .  A
O1917     Cr1922   2.026       .  S
O1918     Cr1922   2.001       .  S
O1918      C1919   1.262       .  A
C1919      C2156   1.478       .  S
Cr1920     O1923   1.764       .  S
Cr1921     O1923   1.767       .  S
Cr1922     O1923   1.771       .  S
C1924      C1925   1.413       .  A
C1924      C1929   1.409       .  A
C1924      C2096   1.480       .  S
C1925      C1926   1.408       .  A
C1925      H1930   1.083       .  S
C1926      C1927   1.390       .  A
C1926      C2106   1.479       .  S
C1927      C1928   1.386       .  A
C1927      H1931   1.087       .  S
C1928      C1929   1.400       .  A
C1928      C2116   1.466       .  S
C1929      H1932   1.083       .  S
C1933      C1934   1.419   1_545  A
C1934      C1935   1.406   1_556  A
C1934      H1939   1.083       .  S
C1935      C1936   1.388   1_565  A
C1935      C2076   1.481       .  S
C1936      H1940   1.085       .  S
C1937      C1938   1.403   1_554  A
C1937      C2086   1.475       .  S
C1938      H1941   1.083       .  S
C1942      C1943   1.409       .  A
C1942      C1947   1.416       .  A
C1942      C2209   1.479       .  S
C1943      C1944   1.397   1_556  A
C1943      H1948   1.084       .  S
C1944      C1945   1.386       .  A
C1944      C2066   1.470       .  S
C1945      C1946   1.396       .  A
C1945      H1949   1.084       .  S
C1946      C1947   1.408   1_554  A
C1946      C2059   1.489       .  S
C1947      H1950   1.082       .  S
C1951      C1952   1.415       .  A
C1951      C1956   1.413       .  A
C1951      C2018   1.505       .  S
C1952      C1953   1.416       .  A
C1952      H1957   1.083       .  S
C1953      C1954   1.417       .  A
C1954      C1955   1.416       .  A
C1954      H1958   1.083       .  S
C1955      C1956   1.415       .  A
C1955      C1974   1.507       .  S
C1956      H1959   1.083       .  S
O1960     Cr1978   1.958       .  S
O1960      C1968   1.250       .  A
O1961     Cr1978   1.946       .  S
O1961      C1962   1.259       .  A
C1962      C2012   1.475       .  S
C1962      O1963   1.279       .  A
O1964      C1965   1.265       .  A
C1965      O1966   1.270       .  A
O1967      C1968   1.265       .  A
C1968      C1984   1.489       .  S
O1969     Cr1978   1.932       .  S
O1970     Cr1978   1.975       .  S
C1971      C2089   1.484       .  S
C1971      O1972   1.258       .  A
O1972     Cr1979   1.999       .  S
O1973     Cr1979   2.022       .  S
O1973      C1974   1.271       .  A
C1974      O1975   1.266       .  A
O1975     Cr1980   2.002       .  S
O1976     Cr1980   2.038       .  S
O1976      C1977   1.279       .  A
C1977      C2069   1.453       .  S
Cr1978     O1981   1.759       .  S
O1982     Cr2000   1.963       .  S
O1982      C1990   1.263       .  A
O1983     Cr2000   1.957       .  S
O1983      C1984   1.249       .  A
C1984      O1985   1.262       .  A
O1985     Cr2001   2.054       .  S
O1986     Cr2001   1.997       .  S
O1986      C1987   1.268       .  A
C1987      C2176   1.481       .  S
C1987      O1988   1.263       .  A
O1988     Cr2002   1.979       .  S
O1989     Cr2002   2.039       .  S
O1989      C1990   1.272       .  A
C1990      C2006   1.457       .  S
O1991     Cr2000   1.975       .  S
O1991      C1999   1.247       .  A
O1992     Cr2000   1.953       .  S
O1992      C1993   1.259       .  A
C1993      C2046   1.466       .  S
C1993      O1994   1.279       .  A
O1994     Cr2001   2.039       .  S
O1995     Cr2001   2.008       .  S
O1995      C1996   1.269       .  A
C1996      O1997   1.270       .  A
O1997     Cr2002   2.019       .  S
O1998     Cr2002   2.020       .  S
O1998      C1999   1.268       .  A
C1999      C2079   1.477       .  S
Cr2000     O2003   1.755       .  S
Cr2001     O2003   1.782       .  S
Cr2002     O2003   1.778       .  S
O2004     Cr2022   1.944       .  S
O2004      C2012   1.252       .  A
O2005     Cr2022   1.956       .  S
O2005      C2006   1.248       .  A
C2006      O2007   1.261       .  A
O2007     Cr2023   2.025       .  S
O2008     Cr2023   1.995       .  S
O2008      C2009   1.265       .  A
C2009      C2099   1.478       .  S
C2009      O2010   1.265       .  A
O2010     Cr2024   1.992       .  S
O2011     Cr2024   2.068       .  S
O2011      C2012   1.275       .  A
O2013     Cr2022   1.987       .  S
O2013      C2021   1.254       .  A
O2014     Cr2022   1.955       .  S
O2014      C2015   1.262       .  A
C2015      C2056   1.488       .  S
C2015      O2016   1.276       .  A
O2016     Cr2023   2.040       .  S
O2017     Cr2023   2.003       .  S
O2017      C2018   1.271       .  A
C2018      O2019   1.274       .  A
O2019     Cr2024   2.030       .  S
O2020     Cr2024   1.994       .  S
O2020      C2021   1.261       .  A
C2021      C2039   1.461       .  S
Cr2022     O2025   1.757       .  S
Cr2023     O2025   1.770       .  S
Cr2024     O2025   1.773       .  S
C2026      C2027   1.410       .  A
C2027      C2028   1.402   1_556  A
C2027      H2032   1.084       .  S
C2028      C2029   1.391       .  A
C2028      C2049   1.471       .  S
C2029      H2033   1.086       .  S
C2030      C2031   1.404   1_554  A
C2030      C2036   1.474       .  S
C2031      H2034   1.084       .  S
C2035      C2036   1.409       .  A
C2035      C2040   1.399       .  A
C2035      H2042   1.084       .  S
C2036      C2037   1.412       .  A
C2037      C2038   1.395       .  A
C2037     Br2044   1.922       .  S
C2038      C2039   1.399       .  A
C2038      H2043   1.084       .  S
C2039      C2040   1.403       .  A
C2040     Br2041   1.919       .  S
C2045      C2046   1.401       .  A
C2045      C2050   1.396       .  A
C2045      H2052   1.084       .  S
C2046      C2047   1.409       .  A
C2047      C2048   1.396       .  A
C2047     Br2054   1.921       .  S
C2048      C2049   1.403       .  A
C2048      H2053   1.084       .  S
C2049      C2050   1.410       .  A
C2050     Br2051   1.921       .  S
C2055      C2056   1.407       .  A
C2055      C2060   1.396       .  A
C2055      H2062   1.083       .  S
C2056      C2057   1.417       .  A
C2057      C2058   1.402       .  A
C2057     Br2064   1.921       .  S
C2058      C2059   1.410       .  A
C2058      H2063   1.084       .  S
C2059      C2060   1.406       .  A
C2060     Br2061   1.910   1_554  S
C2065      C2066   1.401       .  A
C2065      C2070   1.398       .  A
C2065      H2072   1.083       .  S
C2066      C2067   1.415       .  A
C2067      C2068   1.390       .  A
C2067     Br2074   1.925       .  S
C2068      C2069   1.395       .  A
C2068      H2073   1.084       .  S
C2069      C2070   1.408       .  A
C2075      C2076   1.397       .  A
C2075      C2080   1.400       .  A
C2075      H2082   1.083       .  S
C2076      C2077   1.417       .  A
C2077      C2078   1.397       .  A
C2077     Br2084   1.921       .  S
C2078      C2079   1.397       .  A
C2078      H2083   1.083       .  S
C2079      C2080   1.421       .  A
C2080     Br2081   1.920       .  S
C2085      C2086   1.402       .  A
C2085      C2090   1.402       .  A
C2085      H2092   1.084       .  S
C2086      C2087   1.410       .  A
C2087      C2088   1.395       .  A
C2087     Br2094   1.918       .  S
C2088      C2089   1.405       .  A
C2088      H2093   1.084       .  S
C2089      C2090   1.416       .  A
C2095      C2096   1.400       .  A
C2095      C2100   1.398       .  A
C2095      H2102   1.084       .  S
C2096      C2097   1.411       .  A
C2097      C2098   1.403       .  A
C2097     Br2104   1.918       .  S
C2098      C2099   1.403       .  A
C2098      H2103   1.083       .  S
C2099      C2100   1.412       .  A
C2100     Br2101   1.919       .  S
C2105      C2106   1.410       .  A
C2105      C2110   1.400       .  A
C2105      H2112   1.084       .  S
C2106      C2107   1.411       .  A
C2107      C2108   1.394       .  A
C2107     Br2114   1.922       .  S
C2108      C2109   1.404       .  A
C2108      H2113   1.082       .  S
C2109      C2110   1.409       .  A
C2110     Br2111   1.919       .  S
C2115      C2116   1.404       .  A
C2115      C2120   1.395       .  A
C2115      H2122   1.084       .  S
C2116      C2117   1.409       .  A
C2117      C2118   1.396       .  A
C2117     Br2124   1.919       .  S
C2118      C2119   1.401       .  A
C2118      H2123   1.084       .  S
C2119      C2120   1.407       .  A
C2120     Br2121   1.922       .  S
C2125      C2126   1.398       .  A
C2125      C2130   1.395       .  A
C2125      H2132   1.083       .  S
C2126      C2127   1.416       .  A
C2127      C2128   1.397       .  A
C2127     Br2134   1.921       .  S
C2128      C2129   1.398       .  A
C2128      H2133   1.083       .  S
C2129      C2130   1.416       .  A
C2130     Br2131   1.915   1_655  S
C2135      C2136   1.409       .  A
C2135      C2140   1.395       .  A
C2135      H2142   1.083       .  S
C2136      C2137   1.413   1_655  A
C2137      C2138   1.399       .  A
C2138      C2139   1.406   1_455  A
C2139      C2140   1.402       .  A
C2140     Br2141   1.916       .  S
C2145      C2146   1.399       .  A
C2145      C2150   1.398       .  A
C2145      H2152   1.084       .  S
C2146      C2147   1.408       .  A
C2147      C2148   1.403   1_655  A
C2147     Br2154   1.917   1_655  S
C2148      C2149   1.404   1_455  A
C2148      H2153   1.084       .  S
C2149      C2150   1.411       .  A
C2150     Br2151   1.917       .  S
C2155      C2156   1.409       .  A
C2155      C2160   1.404       .  A
C2155      H2162   1.084       .  S
C2156      C2157   1.411       .  A
C2157      C2158   1.397       .  A
C2157     Br2164   1.923       .  S
C2158      C2159   1.403       .  A
C2158      H2163   1.084       .  S
C2159      C2160   1.399       .  A
C2160     Br2161   1.906   1_565  S
C2165      C2166   1.410       .  A
C2165      C2170   1.407       .  A
C2165      H2172   1.082       .  S
C2166      C2167   1.399       .  A
C2167      C2168   1.380       .  A
C2167     Br2174   1.916       .  S
C2168      C2169   1.409       .  A
C2168      H2173   1.075       .  S
C2169      C2170   1.410       .  A
C2170     Br2171   1.918       .  S
C2175      C2176   1.403       .  A
C2175      C2180   1.396       .  A
C2175      H2182   1.084       .  S
C2176      C2177   1.413       .  A
C2177      C2178   1.401       .  A
C2177     Br2184   1.921       .  S
C2178      C2179   1.405       .  A
C2178      H2183   1.083       .  S
C2179      C2180   1.413       .  A
C2180     Br2181   1.923       .  S
C2185      C2186   1.405       .  A
C2185      C2190   1.404       .  A
C2185      H2192   1.084       .  S
C2186      C2187   1.413       .  A
C2187      C2188   1.403       .  A
C2187     Br2194   1.922       .  S
C2188      C2189   1.406       .  A
C2188      H2193   1.084       .  S
C2189      C2190   1.413       .  A
C2190     Br2191   1.920       .  S
C2195      H2202   1.084       .  S
C2196      C2197   1.410       .  A
C2197      C2198   1.401       .  A
C2197     Br2204   1.920       .  S
C2198      C2199   1.404       .  A
C2198      H2203   1.083       .  S
C2199      C2200   1.413       .  A
C2205      C2206   1.400       .  A
C2205      C2210   1.399       .  A
C2205      H2212   1.083       .  S
C2206      C2207   1.409       .  A
C2207      C2208   1.399       .  A
C2207     Br2214   1.920       .  S
C2208      C2209   1.403       .  A
C2208      H2213   1.083       .  S
C2209      C2210   1.410       .  A
C2210     Br2211   1.914       .  S
C2215      C2216   1.413       .  A
C2215      C2220   1.400       .  A
C2215      H2222   1.082       .  S
C2216      C2217   1.411       .  A
C2217      C2218   1.398       .  A
C2217     Br2224   1.917       .  S
C2218      C2219   1.408       .  A
C2218      H2223   1.084       .  S
C2219      C2220   1.406       .  A
C2220     Br2221   1.919       .  S
C2225      C2226   1.410       .  A
C2225      C2230   1.402       .  A
C2225      H2232   1.083       .  S
C2226      C2227   1.421       .  A
C2227      C2228   1.403       .  A
C2227     Br2234   1.923       .  S
C2228      C2229   1.401       .  A
C2228      H2233   1.084       .  S
C2229      C2230   1.408       .  A
C2230     Br2231   1.920       .  S
C2235      C2236   1.401       .  A
C2235      C2240   1.405       .  A
C2235      H2242   1.083       .  S
C2236      C2237   1.411       .  A
C2237      C2238   1.392       .  A
C2237     Br2244   1.920       .  S
C2238      C2239   1.403       .  A
C2238      H2243   1.084       .  S
C2239      C2240   1.418       .  A
C2240     Br2241   1.915       .  S
C2245      C2246   1.398       .  A
C2245      C2250   1.401       .  A
C2245      H2252   1.083       .  S
C2246      C2247   1.409       .  A
C2247      C2248   1.393       .  A
C2248      C2249   1.402       .  A
C2248      H2253   1.084       .  S
C2249      C2250   1.418       .  A
C2250     Br2251   1.914       .  S
C2255      C2256   1.401       .  A
C2255      C2260   1.391       .  A
C2255      H2262   1.083       .  S
C2256      C2257   1.406       .  A
C2257      C2258   1.400       .  A
C2257     Br2264   1.917       .  S
C2258      C2259   1.402       .  A
C2258      H2263   1.083       .  S
C2259      C2260   1.408       .  A
C2260     Br2261   1.922       .  S
C2265      C2266   1.401       .  A
C2265      C2270   1.393       .  A
C2265      H2272   1.084       .  S
C2267     Br2274   1.921   1_455  S
C2268      C2269   1.408       .  A
C2269      C2270   1.413       .  A
C2270     Br2271   1.923       .  S
C2275      C2276   1.409       .  A
C2275      C2280   1.397       .  A
C2275      H2282   1.085       .  S
C2276      C2277   1.404       .  A
C2277      C2278   1.397       .  A
C2277     Br2284   1.915       .  S
C2278      C2279   1.410       .  A
C2278      H2283   1.082       .  S
C2279      C2280   1.411       .  A
C2280     Br2281   1.919       .  S
C2285      C2286   1.410       .  A
C2285      C2290   1.395       .  A
C2285      H2292   1.079       .  S
C2286      C2287   1.409       .  A
C2287     Br2294   1.923   1_655  S
C2288      H2293   1.084       .  S
C2289      C2290   1.403       .  A
C2290     Br2291   1.920       .  S
C2295      C2296   1.403       .  A
C2295      C2300   1.399       .  A
C2295      H2302   1.083       .  S
C2296      C2297   1.411       .  A
C2297      C2298   1.401       .  A
C2297     Br2304   1.918       .  S
C2298      C2299   1.401       .  A
C2298      H2303   1.084       .  S
C2299      C2300   1.406       .  A
