geometry optimzed in LAMMPS
_audit_creation_date              2020-12-01 
_audit_creation_method            'lammps2cif' 
_symmetry_space_group_name_H-M    'P1' 
_symmetry_Int_Tables_number       1 
_symmetry_cell_setting            triclinic 
loop_ 
_symmetry_equiv_pos_as_xyz 
  x,y,z 
_cell_length_a                    24.42512335 
_cell_length_b                    40.93067250146649 
_cell_length_c                    24.346109989487243 
_cell_angle_alpha                 90.93581395624354 
_cell_angle_beta                  94.334743364088 
_cell_angle_gamma                 85.8896628271798 
loop_ 
_atom_site_label 
_atom_site_type_symbol 
_atom_site_fract_x 
_atom_site_fract_y 
_atom_site_fract_z 
_atom_site_charge 
C1          C  0.04478783  0.86667222  0.13492975     0.86000
C2          C  0.99960866  0.85437754  0.16850225    -0.54300
C3          C  0.01421184  0.82630158  0.19785391     0.08900
C4          C  0.07058896  0.81050125  0.18254220     0.19800
C5          C  0.09708300  0.86562923  0.17369431    -0.55000
C6          C  0.11040012  0.83689941  0.20085908     0.09000
C7          C  0.05430420  0.83899204  0.09360281    -0.54500
C8          C  0.06730354  0.80918643  0.11684711     0.09500
H9          H  0.22098320  0.87363368  0.18660973     0.14100
H10         H  0.08132580  0.78700569  0.20388414    -0.00200
H11         H  0.11909353  0.88747984  0.18238503     0.14400
H12         H  0.04799708  0.84254312  0.04956189     0.14200
C13         C  0.08155406  0.72040480  0.06545529     0.86000
C14         C  0.08054236  0.74900351  0.10527387    -0.54300
C15         C  0.07189785  0.77879594  0.08117967     0.08900
C16         C  0.06542800  0.77661397  0.01552126     0.19800
C17         C  0.02762441  0.72462437  0.02941640    -0.55000
C18         C  0.03745933  0.74994201  0.50472677     0.09000
C19         C  0.12577405  0.72740222  0.02642189    -0.54500
C20         C  0.11719272  0.75626090  0.99830754     0.09500
H21         H  0.08566060  0.74527283  0.14930081     0.14100
H22         H  0.06975511  0.79898885  0.50096227    -0.00200
H23         H  0.24250078  0.71079020  0.03222314     0.14400
H24         H  0.15501230  0.70869480  0.01284306     0.14200
C25         C  0.20145167  0.86682974  0.32413977     0.86000
C26         C  0.25124014  0.85605072  0.29137622    -0.54300
C27         C  0.24586191  0.82801491  0.26007887     0.08900
C28         C  0.19352702  0.81092797  0.27181958     0.19800
C29         C  0.15114097  0.86544715  0.28332382    -0.55000
C30         C  0.14688506  0.83697183  0.25384967     0.09000
C31         C  0.19804420  0.83827200  0.36288131    -0.54500
C32         C  0.19471173  0.80856786  0.33706441     0.09500
H33         H  0.03507312  0.87048271  0.27252373     0.14100
H34         H  0.19055717  0.78751124  0.24875260    -0.00200
H35         H  0.12345889  0.88706946  0.27531138     0.14400
H36         H  0.20077867  0.84104103  0.40711010     0.14200
C37         C  0.19027875  0.71934869  0.38355525     0.86000
C38         C  0.18943133  0.74800263  0.34466255    -0.54300
C39         C  0.19553873  0.77756340  0.37026035     0.08900
C40         C  0.20259149  0.77498502  0.43562632     0.19800
C41         C  0.24458498  0.72072965  0.41974165    -0.55000
C42         C  0.25057158  0.74917185  0.44900583     0.09000
C43         C  0.14575946  0.72918960  0.42302575    -0.54500
C44         C  0.15274479  0.75743177  0.45274420     0.09500
H45         H  0.18364100  0.74472711  0.30044494     0.14100
H46         H  0.20782729  0.79819152  0.45875977    -0.00200
H47         H  0.27330745  0.69981991  0.42785895     0.14400
H48         H  0.11664643  0.71193236  0.43368727     0.14200
C49         C  0.02896242  0.22319405  0.13920561     0.86000
C50         C  0.02973601  0.25161646  0.10040287    -0.54300
C51         C  0.03678786  0.28104751  0.12596255     0.08900
C52         C  0.04351166  0.27857524  0.19128373     0.19800
C53         C  0.08275139  0.22359677  0.17610748    -0.55000
C54         C  0.09032116  0.25205923  0.20532758     0.09000
C55         C  0.98441555  0.23389896  0.17839155    -0.54500
C56         C  0.99277215  0.26191761  0.20813961     0.09500
H57         H  0.02436213  0.24819684  0.05620006     0.14100
H58         H  0.04934792  0.30176628  0.21426293    -0.00200
H59         H  0.10976784  0.20154855  0.18260404     0.14400
H60         H  0.19993795  0.21881358  0.17876043     0.14200
C61         C  0.05186540  0.36902149  0.07853934     0.86000
C62         C  0.09949474  0.35553770  0.04509860    -0.54300
C63         C  0.08962823  0.32794726  0.01421368     0.08900
C64         C  0.03538874  0.31361740  0.02740764     0.19800
C65         C  0.00040041  0.36982918  0.03855060    -0.55000
C66         C  0.99728313  0.34112012  0.51281723     0.09000
C67         C  0.04535643  0.34120623  0.11793500    -0.54500
C68         C  0.03766768  0.31174233  0.09260938     0.09500
H69         H  0.13359083  0.37004997  0.03833723     0.14100
H70         H  0.03156080  0.28985537  0.50588374    -0.00200
H71         H  0.22153913  0.38873305  0.03495057     0.14400
H72         H  0.05000684  0.34406900  0.16211419     0.14200
C73         C  0.19263998  0.22218545  0.32498171     0.86000
C74         C  0.18294092  0.25034140  0.36499744    -0.54300
C75         C  0.17125422  0.28005309  0.34082839     0.08900
C76         C  0.16823211  0.27801531  0.27545994     0.19800
C77         C  0.14089858  0.22304878  0.28491997    -0.55000
C78         C  0.12813304  0.25167271  0.25734563     0.09000
C79         C  0.23750266  0.23304256  0.28984064    -0.54500
C80         C  0.22394835  0.26128803  0.26103731     0.09500
H81         H  0.18643243  0.24656038  0.40904979     0.14100
H82         H  0.15855629  0.30146773  0.25360586    -0.00200
H83         H  0.11881210  0.20126920  0.27595453     0.14400
H84         H  0.02467916  0.21792314  0.28787994     0.14200
C85         C  0.13923925  0.36824594  0.39256619     0.86000
C86         C  0.09532570  0.35537472  0.42729473    -0.54300
C87         C  0.11157916  0.32720004  0.45604801     0.08900
C88         C  0.16859440  0.31258210  0.44101800     0.19800
C89         C  0.19148776  0.36842563  0.43134087    -0.55000
C90         C  0.20672842  0.34007516  0.45866823     0.09000
C91         C  0.14991701  0.34028537  0.35188711    -0.54500
C92         C  0.16456017  0.31072223  0.37566457     0.09500
H93         H  0.05749045  0.36910745  0.43515703     0.14100
H94         H  0.18080265  0.28932626  0.46263874    -0.00200
H95         H  0.21265712  0.39067985  0.43903599     0.14400
H96         H  0.14405774  0.34384580  0.30781902     0.14200
O97         O  0.17386572  0.57394562  0.27207471    -0.75000
O98         O  0.12807560  0.50881286  0.16816431    -0.75000
O99         O  0.13721742  0.57484319  0.16728399    -0.75000
O100        O  0.16422216  0.50774564  0.27366392    -0.75100
O101        O  0.07866338  0.51666358  0.29924722    -0.75000
O102        O  0.05067018  0.58325762  0.19019880    -0.75000
O103        O  0.04219887  0.51628234  0.19396748    -0.75000
O104        O  0.08738443  0.58350177  0.29489592    -0.75000
Ni105      Ni  0.15384191  0.54102763  0.21950482     1.25400
Ni106      Ni  0.06152607  0.55022729  0.24547690     1.25400
C107        C  0.13731172  0.59136483  0.29656472     0.87200
C108        C  0.07879204  0.50010257  0.16742401     0.87100
C109        C  0.09104684  0.59176531  0.16428126     0.87200
C110        C  0.12461968  0.49937734  0.30069037     0.87300
O111        O  0.22271078  0.01215837  0.04505947    -0.75000
O112        O  0.17524961  0.08086273  0.44065893    -0.75000
O113        O  0.17233206  0.01363382  0.44170288    -0.75000
O114        O  0.21808409  0.07894861  0.04222306    -0.75100
O115        O  0.05224062  0.07794850  0.02107125    -0.75000
O116        O  0.01520496  0.01010900  0.41990335    -0.75000
O117        O  0.01424645  0.07692923  0.42096980    -0.75000
O118        O  0.05614288  0.01045219  0.02363773    -0.75000
Ni119      Ni  0.18868657  0.04744846  0.49472223     1.25400
Ni120      Ni  0.03348688  0.04277564  0.47303418     1.25400
C121        C  0.01824747  0.99881923  0.04950430     0.87200
C122        C  0.21421575  0.09090145  0.41443255     0.87100
C123        C  0.21024942  0.99864635  0.41527588     0.87200
C124        C  0.01263634  0.09173179  0.04660441     0.87300
C125        C  0.16733781  0.41071962  0.32974062    -0.21800
C126        C  0.12914064  0.40216482  0.36664131    -0.09900
C127        C  0.09216559  0.42750738  0.38558807     0.29000
C128        C  0.09189510  0.45931855  0.36523875    -0.21800
C129        C  0.12982733  0.46724818  0.32805209    -0.09900
C130        C  0.16818416  0.44258926  0.31114006     0.29000
F131        F  0.20600827  0.44887694  0.27540603    -0.20400
H132        H  0.19842519  0.39268018  0.31653959     0.17300
H133        H  0.06215490  0.47796390  0.37918713     0.17400
F134        F  0.05821737  0.42292956  0.42574087    -0.20400
C135        C  0.15716144  0.17616386  0.37555550    -0.21800
C136        C  0.20214692  0.18877162  0.35215543    -0.09900
C137        C  0.25161383  0.16864554  0.35143047     0.29000
C138        C  0.25316459  0.13606411  0.36714596    -0.21800
C139        C  0.20725287  0.12315939  0.38784363    -0.09900
C140        C  0.15934462  0.14384418  0.39293933     0.29000
F141        F  0.11494329  0.13331515  0.41596162    -0.20400
H142        H  0.11928600  0.19132482  0.37897298     0.17300
H143        H  0.99098394  0.11017671  0.31575055     0.17400
F144        F  0.98362914  0.16661447  0.26848338    -0.20400
C145        C  0.04452130  0.41219842  0.15559271    -0.21800
C146        C  0.05943105  0.40335617  0.10234344    -0.09900
C147        C  0.07561437  0.42834364  0.06850719     0.29000
C148        C  0.08080151  0.46016120  0.08904859    -0.21800
C149        C  0.06665935  0.46836207  0.14228044    -0.09900
C150        C  0.04820271  0.44423833  0.17521964     0.29000
F151        F  0.03661258  0.45129038  0.22778349    -0.20400
H152        H  0.02893938  0.39484739  0.18230499     0.17300
H153        H  0.09559395  0.47846133  0.06328363     0.17400
F154        F  0.08605070  0.42224484  0.01521015    -0.20400
C155        C  0.29713722  0.17861244  0.06317245    -0.21800
C156        C  0.02267566  0.18998247  0.11064374    -0.09900
C157        C  0.06639160  0.17453561  0.08294489     0.29000
C158        C  0.06430256  0.14199712  0.06465811    -0.21800
C159        C  0.01825624  0.12432760  0.07268620    -0.09900
C160        C  0.29466017  0.14702499  0.04125467     0.29000
F161        F  0.31111047  0.14086522  0.98989652    -0.20400
H162        H  0.31588901  0.19634094  0.03962112     0.17300
H163        H  0.09837736  0.13087337  0.04329835     0.17400
F164        F  0.11144691  0.19078849  0.07414613    -0.20400
C165        C  0.21954683  0.65952078  0.35767050    -0.21800
C166        C  0.17973536  0.68639147  0.35568952    -0.09900
C167        C  0.12677229  0.68137683  0.33114818     0.29000
C168        C  0.11258202  0.64998388  0.31531624    -0.21800
C169        C  0.15150655  0.62307856  0.32085874    -0.09900
C170        C  0.20561190  0.62831850  0.34049135     0.29000
F171        F  0.24524258  0.60327406  0.34303942    -0.20400
H172        H  0.26190968  0.66190889  0.37160143     0.17300
H173        H  0.07150387  0.64691074  0.29683150     0.17400
F174        F  0.08818425  0.70681639  0.32369266    -0.20400
C175        C  0.21473710  0.95982742  0.33529141    -0.21800
C176        C  0.20067444  0.96678754  0.38900130    -0.09900
C177        C  0.00550310  0.95301292  0.35675998     0.29000
C178        C  0.18665983  0.90922620  0.40143840    -0.21800
C179        C  0.20294508  0.90155040  0.34822922    -0.09900
C180        C  0.21396151  0.92781988  0.31431352     0.29000
F181        F  0.22356415  0.92268474  0.26056239    -0.20400
H182        H  0.22630704  0.97919017  0.30961522     0.17300
H183        H  0.04273649  0.91161093  0.31970888     0.15200
F184        F  0.04786049  0.97083660  0.34494664    -0.20400
C185        C  0.13076000  0.66393988  0.08589061    -0.21800
C186        C  0.08666231  0.68726659  0.09337943    -0.09900
C187        C  0.04398687  0.67855970  0.12507200     0.29000
C188        C  0.04408492  0.64694139  0.14559631    -0.21800
C189        C  0.08696159  0.62338092  0.13563699    -0.09900
C190        C  0.13054023  0.63237877  0.10582927     0.29000
F191        F  0.17392456  0.61090147  0.09651138    -0.20400
H192        H  0.16637161  0.66928597  0.06515816     0.17300
H193        H  0.01120780  0.64117696  0.17043796     0.17400
F194        F  0.00169937  0.70063253  0.13555055    -0.20400
C195        C  0.06055802  0.90945933  0.06536866    -0.21800
C196        C  0.03373694  0.90112242  0.11181800    -0.09900
C197        C  0.00754385  0.92694420  0.14208916     0.29000
C198        C  0.23448688  0.95105995  0.09179723    -0.21800
C199        C  0.02871548  0.96658993  0.07519416    -0.09900
C200        C  0.05774241  0.94157733  0.04701634     0.29000
F201        F  0.08117528  0.94783780  0.99983981    -0.20400
H202        H  0.08493303  0.89125892  0.04335364     0.17300
H203        H  0.19399994  0.96386399  0.08892437     0.17400
F204        F  0.19091123  0.90433142  0.11364237    -0.20400
C205        C  0.03397464  0.86514812  0.63590348     0.86000
C206        C  0.98945202  0.85101018  0.66794920    -0.54300
C207        C  0.00695239  0.82401611  0.69901902     0.08900
C208        C  0.06600832  0.81081493  0.68699139     0.19800
C209        C  0.08401153  0.86754553  0.67719427    -0.55000
C210        C  0.10093272  0.83953957  0.70497186     0.09000
C211        C  0.04959374  0.83718243  0.59679421    -0.54500
C212        C  0.06619785  0.80835337  0.62205371     0.09500
H213        H  0.20600738  0.86812930  0.67669337     0.14100
H214        H  0.07911146  0.78802029  0.70965220    -0.00200
H215        H  0.10316354  0.89046571  0.68492585     0.14400
H216        H  0.04442593  0.83972948  0.55257061     0.14200
C217        C  0.09929759  0.71982419  0.57372934     0.86000
C218        C  0.08934544  0.74821140  0.61333078    -0.54300
C219        C  0.07843352  0.77782656  0.58852218     0.08900
C220        C  0.07814818  0.77564181  0.52334006     0.19800
C221        C  0.04863077  0.72130735  0.53253619    -0.55000
C222        C  0.01943633  0.75307028  0.00057304     0.09000
C223        C  0.14607771  0.73015654  0.54010029    -0.54500
C224        C  0.13406143  0.75831689  0.51026459     0.09500
H225        H  0.09041421  0.74457644  0.65735360     0.14100
H226        H  0.05842783  0.80023542  0.99365725    -0.00200
H227        H  0.27511883  0.69882601  0.52195868     0.14400
H228        H  0.18027009  0.71348979  0.53012158     0.14200
C229        C  0.20656948  0.86634686  0.81949597     0.86000
C230        C  0.25201650  0.85311685  0.78340089    -0.54300
C231        C  0.24030862  0.82569573  0.75275736     0.08900
C232        C  0.18645876  0.81164300  0.76802425     0.19800
C233        C  0.15333316  0.86795705  0.78174875    -0.55000
C234        C  0.14294622  0.83972984  0.75328499     0.09000
C235        C  0.20187217  0.83823092  0.85850914    -0.54500
C236        C  0.19121546  0.80942669  0.83296614     0.09500
H237        H  0.03577080  0.86420508  0.78081077     0.14100
H238        H  0.17820029  0.78864504  0.74532293    -0.00200
H239        H  0.12765008  0.89058632  0.77609403     0.14400
H240        H  0.21116310  0.84007790  0.90243862     0.14200
C241        C  0.19096532  0.72093753  0.88001222     0.86000
C242        C  0.19181185  0.74913045  0.84095868    -0.54300
C243        C  0.18999446  0.77906723  0.86610587     0.08900
C244        C  0.18881158  0.77752776  0.93117703     0.19800
C245        C  0.24003925  0.72535925  0.92249943    -0.55000
C246        C  0.23878549  0.75457168  0.95098703     0.09000
C247        C  0.13991655  0.72906129  0.91210833    -0.54500
C248        C  0.13967930  0.75749570  0.94243855     0.09500
H249        H  0.19416336  0.74523104  0.79705806     0.14100
H250        H  0.18711097  0.80135952  0.95336656    -0.00200
H251        H  0.26986735  0.70577001  0.93504564     0.14400
H252        H  0.11124978  0.71056542  0.91829596     0.14200
C253        C  0.02717507  0.22268216  0.63958729     0.86000
C254        C  0.03242775  0.25079472  0.60106929    -0.54300
C255        C  0.03977159  0.28018908  0.62695948     0.08900
C256        C  0.04287588  0.27781182  0.69216775     0.19800
C257        C  0.07917134  0.22198857  0.67927148    -0.55000
C258        C  0.08744863  0.25038792  0.70825686     0.09000
C259        C  0.98073745  0.23478366  0.67583335    -0.54500
C260        C  0.98981013  0.26242870  0.70637965     0.09500
H261        H  0.02970036  0.24720159  0.55683478     0.14100
H262        H  0.04899896  0.30099493  0.71512512    -0.00200
H263        H  0.10510487  0.19960223  0.68666576     0.14400
H264        H  0.19911290  0.21817777  0.67717406     0.14200
C265        C  0.06076192  0.36766990  0.57962440     0.86000
C266        C  0.10669311  0.35291430  0.54504615    -0.54300
C267        C  0.09435062  0.32615932  0.51385733     0.08900
C268        C  0.03986820  0.31278741  0.52867374     0.19800
C269        C  0.00814017  0.36940145  0.54104251    -0.55000
C270        C  0.99181639  0.34136101  0.01005787     0.09000
C271        C  0.05374916  0.34015626  0.61937362    -0.54500
C272        C  0.04356355  0.31082525  0.59403713     0.09500
H273        H  0.14354379  0.36478734  0.53893146     0.14100
H274        H  0.02890183  0.29044895  0.00458621    -0.00200
H275        H  0.22859622  0.39145432  0.53081893     0.14400
H276        H  0.05839372  0.34369783  0.66359552     0.14200
C277        C  0.19233328  0.22054983  0.82522489     0.86000
C278        C  0.18358021  0.24854772  0.86600609    -0.54300
C279        C  0.17039758  0.27831485  0.84232677     0.08900
C280        C  0.16589683  0.27655651  0.77679328     0.19800
C281        C  0.13950088  0.22147445  0.78681779    -0.55000
C282        C  0.12584150  0.25011737  0.75967189     0.09000
C283        C  0.23572791  0.23178617  0.78831078    -0.54500
C284        C  0.22124647  0.26027076  0.76028476     0.09500
H285        H  0.18843755  0.24472948  0.91007536     0.14100
H286        H  0.15497918  0.29994514  0.75516010    -0.00200
H287        H  0.11724256  0.19970354  0.77842990     0.14400
H288        H  0.02209815  0.21827592  0.78571932     0.14200
C289        C  0.13982483  0.36682348  0.89268976     0.86000
C290        C  0.09447422  0.35566254  0.92727793    -0.54300
C291        C  0.10837861  0.32757887  0.95681847     0.08900
C292        C  0.16470161  0.31115216  0.94280105     0.19800
C293        C  0.19104488  0.36623018  0.93317145    -0.55000
C294        C  0.20415988  0.33782811  0.96105660     0.09000
C295        C  0.15021684  0.33853706  0.85301072    -0.54500
C296        C  0.16251508  0.30893893  0.87734288     0.09500
H297        H  0.05961414  0.37135756  0.93792092     0.14100
H298        H  0.17476858  0.28773710  0.96469697    -0.00200
H299        H  0.21247655  0.38822659  0.94219284     0.14400
H300        H  0.14707324  0.34222218  0.80894504     0.14200
O301        O  0.18988860  0.57233970  0.77642172    -0.75000
O302        O  0.14562426  0.50569146  0.67463071    -0.75000
O303        O  0.15731313  0.57171611  0.67041794    -0.75000
O304        O  0.17822138  0.50617986  0.78060321    -0.75100
O305        O  0.09152615  0.51638194  0.80203145    -0.75000
O306        O  0.06961430  0.58055186  0.68936988    -0.75000
O307        O  0.05864315  0.51434367  0.69638418    -0.75000
O308        O  0.10215650  0.58279769  0.79492125    -0.75000
Ni309      Ni  0.17089709  0.53859339  0.72486536     1.25400
Ni310      Ni  0.07737993  0.54888063  0.74654007     1.25400
C311        C  0.15218572  0.59052125  0.79786359     0.87200
C312        C  0.09580726  0.49750398  0.67177320     0.87100
C313        C  0.11125340  0.58875270  0.66510647     0.87200
C314        C  0.13667203  0.49833472  0.80522542     0.87300
O315        O  0.20822146  0.01366206  0.54693942    -0.75000
O316        O  0.18283812  0.07691410  0.93644624    -0.75000
O317        O  0.18767089  0.00974177  0.93986565    -0.75000
O318        O  0.21158290  0.08070074  0.54624764    -0.75100
O319        O  0.04570428  0.07608327  0.52747363    -0.75000
O320        O  0.02064520  0.00898601  0.91821896    -0.75000
O321        O  0.01684272  0.07623966  0.91564010    -0.75000
O322        O  0.04615914  0.00856462  0.52607893    -0.75000
Ni323      Ni  0.19968365  0.04451956  0.99166140     1.25400
Ni324      Ni  0.03960648  0.04327715  0.96884393     1.25400
C325        C  0.00644081  0.99712953  0.54953297     0.87200
C326        C  0.22090993  0.08823762  0.91055345     0.87100
C327        C  0.22701159  0.99599961  0.91396132     0.87200
C328        C  0.00540027  0.09061036  0.55091707     0.87300
C329        C  0.17783620  0.40984098  0.83795187    -0.21800
C330        C  0.13272066  0.40031361  0.86513650    -0.09900
C331        C  0.08803190  0.42378161  0.87087023     0.29000
C332        C  0.09139106  0.45608859  0.85460171    -0.21800
C333        C  0.13809089  0.46577225  0.83071539    -0.09900
C334        C  0.18095599  0.44198078  0.82156657     0.29000
F335        F  0.22559159  0.44932153  0.79555486    -0.20400
H336        H  0.21233478  0.39240276  0.83151635     0.17300
H337        H  0.05636398  0.47338864  0.85937054     0.17400
F338        F  0.04025500  0.41634148  0.89046650    -0.20400
C339        C  0.15865541  0.17273867  0.87374910    -0.21800
C340        C  0.20302047  0.18674648  0.85128593    -0.09900
C341        C  0.25316542  0.16742646  0.84951207     0.29000
C342        C  0.25637718  0.13455648  0.86367666    -0.21800
C343        C  0.21136086  0.12034936  0.88371881    -0.09900
C344        C  0.16226609  0.13992705  0.88903286     0.29000
F345        F  0.11815521  0.12784114  0.91036795    -0.20400
H346        H  0.12014695  0.18712781  0.87785095     0.17300
H347        H  0.98902639  0.10984176  0.81178735     0.17400
F348        F  0.98045649  0.16654463  0.76538132    -0.20400
C349        C  0.10881489  0.42163561  0.58342234    -0.21800
C350        C  0.07024038  0.40170507  0.60423968    -0.09900
C351        C  0.03475588  0.41614195  0.64239281     0.29000
C352        C  0.04114199  0.44812775  0.66209131    -0.21800
C353        C  0.08274302  0.46647467  0.64400086    -0.09900
C354        C  0.11602361  0.45299837  0.60395869     0.29000
F355        F  0.15545117  0.47030160  0.58398555    -0.20400
H356        H  0.13299412  0.41430581  0.54957704     0.17300
H357        H  0.01462897  0.45814848  0.69282443     0.17400
F358        F  0.99333780  0.39953820  0.66001823    -0.20400
C359        C  0.29033784  0.17951153  0.56014610    -0.21800
C360        C  0.01995638  0.18941093  0.61130150    -0.09900
C361        C  0.06508972  0.17146285  0.58951470     0.29000
C362        C  0.06116538  0.13872610  0.57312374    -0.21800
C363        C  0.01182430  0.12332662  0.57644218    -0.09900
C364        C  0.28760027  0.14753050  0.53983975     0.29000
F365        F  0.29938147  0.14103964  0.48705430    -0.20400
H366        H  0.30425761  0.19744622  0.53336326     0.17300
H367        H  0.09659488  0.12567354  0.55663772     0.17400
F368        F  0.11333031  0.18538673  0.58478465    -0.20400
C369        C  0.22607888  0.66057133  0.86462999    -0.21800
C370        C  0.18754843  0.68739031  0.85213344    -0.09900
C371        C  0.14010525  0.68165081  0.81766914     0.29000
C372        C  0.12830190  0.64985399  0.80246442    -0.21800
C373        C  0.16463939  0.62312684  0.81888383    -0.09900
C374        C  0.21470329  0.62876930  0.84806143     0.29000
F375        F  0.25178849  0.60345168  0.86210210    -0.20400
H376        H  0.26479914  0.66326568  0.88783394     0.17300
H377        H  0.09087220  0.64614373  0.77700782     0.17400
F378        F  0.10355403  0.70677168  0.80102782    -0.20400
C379        C  0.23399055  0.95725502  0.83448522    -0.21800
C380        C  0.22013807  0.96394476  0.88831904    -0.09900
C381        C  0.00244812  0.95271191  0.85030726     0.29000
C382        C  0.20189331  0.90718392  0.89923621    -0.21800
C383        C  0.21557536  0.89986109  0.84505215    -0.09900
C384        C  0.23020420  0.92573564  0.81229105     0.29000
F385        F  0.23937241  0.92092895  0.75835228    -0.20400
H386        H  0.24655154  0.97657527  0.80935123     0.17300
H387        H  0.02650160  0.91381246  0.79822099     0.15200
F388        F  0.04060159  0.97152731  0.83170122    -0.20400
C389        C  0.15337262  0.66471484  0.59728937    -0.21800
C390        C  0.10584472  0.68613984  0.60051506    -0.09900
C391        C  0.06018707  0.67441682  0.62441763     0.29000
C392        C  0.06100673  0.64206378  0.64128884    -0.21800
C393        C  0.10793258  0.62060492  0.63692941    -0.09900
C394        C  0.15435728  0.63234815  0.61486729     0.29000
F395        F  0.20133949  0.61286073  0.61116868    -0.20400
H396        H  0.19045463  0.67238658  0.58163551     0.17300
H397        H  0.02506867  0.63416434  0.65943152     0.17400
F398        F  0.01363474  0.69408009  0.62978414    -0.20400
C399        C  0.04706399  0.90725204  0.56419407    -0.21800
C400        C  0.01950563  0.89864559  0.61005453    -0.09900
C401        C  0.99013826  0.92406421  0.63831875     0.29000
C402        C  0.21714268  0.94990840  0.58856650    -0.21800
C403        C  0.01410192  0.96424686  0.57351997    -0.09900
C404        C  0.04389728  0.93936665  0.54581277     0.29000
F405        F  0.06840336  0.94583609  0.49941487    -0.20400
H406        H  0.07308476  0.88945408  0.54312223     0.17300
H407        H  0.17696260  0.96303580  0.58725117     0.17400
F408        F  0.17387401  0.90251137  0.60908574    -0.20400
C409        C  0.29939423  0.86727230  0.13942158     0.86000
C410        C  0.25386117  0.85666864  0.17432526    -0.54300
C411        C  0.26644298  0.82832563  0.20327622     0.08900
C412        C  0.32236722  0.81134851  0.18901407     0.19800
C413        C  0.35031846  0.86631782  0.18006631    -0.55000
C414        C  0.36239717  0.83765296  0.20753174     0.09000
C415        C  0.30960191  0.83921355  0.09952310    -0.54500
C416        C  0.32066770  0.80943099  0.12349247     0.09500
H417        H  0.46346202  0.87084604  0.17887384     0.14100
H418        H  0.33189141  0.78781012  0.21069097    -0.00200
H419        H  0.37229836  0.88807520  0.18956351     0.14400
H420        H  0.30637769  0.84312648  0.05552189     0.14200
C421        C  0.32901420  0.72036675  0.06948054     0.86000
C422        C  0.33153058  0.74846891  0.11115054    -0.54300
C423        C  0.32535156  0.77882456  0.08791783     0.08900
C424        C  0.31815875  0.77737966  0.02212112     0.19800
C425        C  0.27360034  0.72813278  0.03695114    -0.55000
C426        C  0.28759187  0.74858297  0.50118847     0.09000
C427        C  0.37348938  0.72624300  0.03057841    -0.54500
C428        C  0.36744180  0.75549551  0.00336082     0.09500
H429        H  0.33534659  0.74446708  0.15515966     0.14100
H430        H  0.31950811  0.79769078  0.49614110    -0.00200
H431        H  0.49791985  0.70412362  0.02232017     0.14400
H432        H  0.40272948  0.70646193  0.01943285     0.14200
C433        C  0.46161450  0.86532106  0.32609583     0.86000
C434        C  0.50665173  0.85409715  0.28783116    -0.54300
C435        C  0.49740529  0.82646714  0.25737262     0.08900
C436        C  0.44579973  0.81028138  0.27320889     0.19800
C437        C  0.40813542  0.86549229  0.28848079    -0.55000
C438        C  0.40000905  0.83713936  0.25924381     0.09000
C439        C  0.45898670  0.83675726  0.36449645    -0.54500
C440        C  0.45101933  0.80749555  0.33821349     0.09500
H441        H  0.28329527  0.87241417  0.28545645     0.14100
H442        H  0.43954881  0.78724512  0.24988280    -0.00200
H443        H  0.38133118  0.88762504  0.28201336     0.14400
H444        H  0.46375034  0.83994610  0.40876298     0.14200
C445        C  0.44398186  0.71803844  0.38267175     0.86000
C446        C  0.44328605  0.74689937  0.34408928    -0.54300
C447        C  0.44884023  0.77645107  0.37022366     0.08900
C448        C  0.45413718  0.77380313  0.43520257     0.19800
C449        C  0.49765445  0.71995434  0.41958918    -0.55000
C450        C  0.50229964  0.74846021  0.44917283     0.09000
C451        C  0.39864632  0.72742849  0.42146724    -0.54500
C452        C  0.40439931  0.75584074  0.45098822     0.09500
H453        H  0.43930201  0.74360011  0.29979606     0.14100
H454        H  0.45825284  0.79702976  0.45854482    -0.00200
H455        H  0.52674954  0.69926257  0.42799634     0.14400
H456        H  0.36961499  0.70997428  0.43163608     0.14200
C457        C  0.28269823  0.22079198  0.14019623     0.86000
C458        C  0.28813833  0.24896036  0.10136816    -0.54300
C459        C  0.29394930  0.27847076  0.12714501     0.08900
C460        C  0.29636823  0.27631720  0.19203124     0.19800
C461        C  0.33372043  0.22057348  0.18084308    -0.55000
C462        C  0.34106707  0.24918079  0.20948817     0.09000
C463        C  0.23410141  0.23348867  0.17298161    -0.54500
C464        C  0.24270976  0.26119628  0.20407779     0.09500
H465        H  0.28319050  0.24615745  0.05717832     0.14100
H466        H  0.30160544  0.29946003  0.21529494    -0.00200
H467        H  0.35996709  0.19833940  0.18851102     0.14400
H468        H  0.45384319  0.21670978  0.19126015     0.14200
C469        C  0.30070305  0.36721208  0.08106225     0.86000
C470        C  0.34840168  0.35526439  0.04678907    -0.54300
C471        C  0.34002175  0.32764307  0.01575971     0.08900
C472        C  0.28773521  0.31160126  0.02947252     0.19800
C473        C  0.24847977  0.36672009  0.04213735    -0.55000
C474        C  0.24617519  0.34049610  0.50960425     0.09000
C475        C  0.29711182  0.33901980  0.12031689    -0.54500
C476        C  0.29173099  0.30941619  0.09454049     0.09500
H477        H  0.38080769  0.37099751  0.03928288     0.14100
H478        H  0.28433784  0.28997942  0.50382866    -0.00200
H479        H  0.47105932  0.38921745  0.03602473     0.14400
H480        H  0.30173948  0.34178725  0.16445670     0.14200
C481        C  0.44608736  0.22235578  0.32884883     0.86000
C482        C  0.43428277  0.25064555  0.36848400    -0.54300
C483        C  0.42073107  0.27997826  0.34353214     0.08900
C484        C  0.41830349  0.27734640  0.27821711     0.19800
C485        C  0.39477649  0.22169943  0.28890268    -0.55000
C486        C  0.38018392  0.24982388  0.26062086     0.09000
C487        C  0.49132557  0.23486724  0.29589889    -0.54500
C488        C  0.47563861  0.26212471  0.26505421     0.09500
H489        H  0.43977408  0.24777178  0.41265028     0.14100
H490        H  0.40714640  0.30042160  0.25567431    -0.00200
H491        H  0.37400069  0.19934072  0.28102963     0.14400
H492        H  0.27037967  0.21639767  0.27682232     0.14200
C493        C  0.39108075  0.36893224  0.39276951     0.86000
C494        C  0.34678207  0.35719718  0.42794062    -0.54300
C495        C  0.36221827  0.32913193  0.45718928     0.08900
C496        C  0.41856528  0.31354388  0.44266172     0.19800
C497        C  0.44342346  0.36894841  0.43140923    -0.55000
C498        C  0.45750122  0.34069405  0.45947305     0.09000
C499        C  0.40054422  0.34033635  0.35290165    -0.54500
C500        C  0.41440701  0.31097790  0.37748763     0.09500
H501        H  0.30935773  0.37161085  0.43533361     0.14100
H502        H  0.42979284  0.29046695  0.46513658    -0.00200
H503        H  0.46549824  0.39092523  0.43839313     0.14400
H504        H  0.39419936  0.34326586  0.30872345     0.14200
O505        O  0.43243354  0.57228838  0.26857454    -0.75000
O506        O  0.38694190  0.50596987  0.16558649    -0.75000
O507        O  0.39990789  0.57217574  0.16246340    -0.75000
O508        O  0.42066696  0.50632850  0.27164606    -0.75100
O509        O  0.33420332  0.51632185  0.29434209    -0.75000
O510        O  0.31218087  0.58141895  0.18216513    -0.75000
O511        O  0.30031931  0.51531006  0.18868906    -0.75000
O512        O  0.34507767  0.58255454  0.28831029    -0.75000
Ni513      Ni  0.41309693  0.53880460  0.21624354     1.25400
Ni514      Ni  0.31981479  0.54930538  0.23910422     1.25400
C515        C  0.39522202  0.58994960  0.29195839     0.87200
C516        C  0.33701130  0.49806277  0.16425327     0.87100
C517        C  0.35393120  0.58919024  0.15765888     0.87200
C518        C  0.37983928  0.49869834  0.29754489     0.87300
O519        O  0.46292288  0.01143966  0.04050298    -0.75000
O520        O  0.43347638  0.07901063  0.43882075    -0.75000
O521        O  0.43693718  0.01163613  0.43797805    -0.75000
O522        O  0.45901481  0.07864276  0.04053739    -0.75100
O523        O  0.30488853  0.07640665  0.01857441    -0.75000
O524        O  0.25881209  0.00862407  0.41710265    -0.75000
O525        O  0.26150968  0.07520176  0.41611205    -0.75000
O526        O  0.30932697  0.00900048  0.02138824    -0.75000
Ni527      Ni  0.44614644  0.04536405  0.49241292     1.25400
Ni528      Ni  0.28127797  0.04178241  0.46850167     1.25400
C529        C  0.27121344  0.99793805  0.04761654     0.87200
C530        C  0.47325744  0.09085218  0.41626378     0.87100
C531        C  0.47827062  0.99766333  0.41532735     0.87200
C532        C  0.26555407  0.09044044  0.04417677     0.87300
C533        C  0.41534401  0.40930351  0.32417433    -0.21800
C534        C  0.38123506  0.40249268  0.36597473    -0.09900
C535        C  0.34935480  0.42912843  0.38847556     0.29000
C536        C  0.34969660  0.46066473  0.36707845    -0.21800
C537        C  0.38352572  0.46677112  0.32504476    -0.09900
C538        C  0.41597299  0.44062040  0.30349757     0.29000
F539        F  0.44617609  0.44479439  0.26001547    -0.20400
H540        H  0.44289375  0.39031197  0.30775286     0.17300
H541        H  0.32399699  0.48045279  0.38392330     0.17400
F542        F  0.31979741  0.42577726  0.43260091    -0.20400
C543        C  0.43086676  0.18024887  0.39958290    -0.21800
C544        C  0.45847515  0.18851045  0.35363786    -0.09900
C545        C  0.48598921  0.16273809  0.32440304     0.29000
C546        C  0.49069869  0.13082045  0.34452904    -0.21800
C547        C  0.46431615  0.12328900  0.39116323    -0.09900
C548        C  0.43370943  0.14817552  0.41813284     0.29000
F549        F  0.40785214  0.14172009  0.46373448    -0.20400
H550        H  0.40527446  0.19836759  0.42052599     0.17300
H551        H  0.29190132  0.12147023  0.36618322     0.17400
F552        F  0.29996888  0.18026691  0.34019563    -0.20400
C553        C  0.30343329  0.41001044  0.15953595    -0.21800
C554        C  0.30775510  0.40173802  0.10373176    -0.09900
C555        C  0.31732364  0.42691543  0.06699047     0.29000
C556        C  0.32657560  0.45848091  0.08620310    -0.21800
C557        C  0.32335267  0.46607946  0.14182461    -0.09900
C558        C  0.31052421  0.44192787  0.17815660     0.29000
F559        F  0.30638254  0.44902556  0.23228280    -0.20400
H560        H  0.29392284  0.39238322  0.18920856     0.17300
H561        H  0.33593876  0.47697960  0.05768679     0.17400
F562        F  0.31854554  0.42086112  0.01225293    -0.20400
C563        C  0.46995447  0.17283349  0.11076714    -0.21800
C564        C  0.27697273  0.18668609  0.11473597    -0.09900
C565        C  0.25780493  0.16115197  0.14533967     0.29000
C566        C  0.25426459  0.12970567  0.12261692    -0.21800
C567        C  0.27307421  0.12240099  0.07075364    -0.09900
C568        C  0.46591593  0.14080054  0.09178480     0.29000
F569        F  0.41666986  0.12749118  0.09288025    -0.20400
H570        H  0.43302891  0.18540455  0.12444057     0.17300
H571        H  0.23760817  0.11089457  0.14589042     0.17400
F572        F  0.24338782  0.16615296  0.19772033    -0.20400
C573        C  0.47465917  0.65803865  0.35791603    -0.21800
C574        C  0.43468657  0.68488462  0.35462375    -0.09900
C575        C  0.38227988  0.67955873  0.32898168     0.29000
C576        C  0.36922809  0.64821557  0.31180464    -0.21800
C577        C  0.40849776  0.62150312  0.31757719    -0.09900
C578        C  0.46158811  0.62676945  0.34003410     0.29000
F579        F  0.50058668  0.60153437  0.34570384    -0.20400
H580        H  0.51649334  0.66038552  0.37397347     0.17300
H581        H  0.32860427  0.64504683  0.29217045     0.17400
F582        F  0.34287426  0.70458762  0.32209474    -0.20400
C583        C  0.42613564  0.94808157  0.39529352    -0.21800
C584        C  0.47346722  0.96496794  0.38933992    -0.09900
C585        C  0.18532357  0.94141807  0.42136319     0.29000
C586        C  0.51725489  0.91514256  0.35214269    -0.21800
C587        C  0.46857404  0.89870129  0.35423157    -0.09900
C588        C  0.42394426  0.91528556  0.37890229     0.29000
F589        F  0.37761622  0.89994968  0.38633012    -0.20400
H590        H  0.39103440  0.95997418  0.41406335     0.17300
H591        H  0.17387353  0.89078227  0.42793988     0.15200
F592        F  0.17188202  0.94753063  0.47366720    -0.20400
C593        C  0.37332442  0.67785315  0.13639624    -0.21800
C594        C  0.33603559  0.68534908  0.09088247    -0.09900
C595        C  0.31210453  0.65878756  0.06160965     0.29000
C596        C  0.31737766  0.62734627  0.08343199    -0.21800
C597        C  0.35160071  0.62088378  0.13079501    -0.09900
C598        C  0.38161429  0.64586623  0.15566626     0.29000
F599        F  0.41779683  0.63947777  0.19977182    -0.20400
H600        H  0.39644017  0.69668512  0.15696187     0.17300
H601        H  0.29602050  0.60785795  0.06252758     0.17400
F602        F  0.28575530  0.66225577  0.01078994    -0.20400
C603        C  0.33557943  0.91507774  0.09269889    -0.21800
C604        C  0.29003403  0.90057565  0.11196417    -0.09900
C605        C  0.23849135  0.91849352  0.10763088     0.29000
C606        C  0.50272330  0.95914175  0.12132472    -0.21800
C607        C  0.28042393  0.96601799  0.07519918    -0.09900
C608        C  0.33111026  0.94742103  0.07481468     0.29000
F609        F  0.37603059  0.96001872  0.05603449    -0.20400
H610        H  0.37528677  0.90143799  0.09261430     0.17300
H611        H  0.48329864  0.97873218  0.14504465     0.17400
F612        F  0.49613063  0.92316222  0.19503430    -0.20400
C613        C  0.28480838  0.86524494  0.63022428     0.86000
C614        C  0.24073368  0.85252658  0.66477317    -0.54300
C615        C  0.25739058  0.82504101  0.69488449     0.08900
C616        C  0.31517033  0.81074371  0.68160677     0.19800
C617        C  0.33544648  0.86679878  0.67136762    -0.55000
C618        C  0.35138955  0.83873849  0.69922999     0.09000
C619        C  0.29920461  0.83722140  0.59116586    -0.54500
C620        C  0.31469913  0.80825243  0.61665683     0.09500
H621        H  0.45177027  0.86480905  0.66914813     0.14100
H622        H  0.32745158  0.78798983  0.70460495    -0.00200
H623        H  0.35537935  0.88939828  0.67952918     0.14400
H624        H  0.29626007  0.84042876  0.54694353     0.14200
C625        C  0.34885863  0.71931312  0.57129839     0.86000
C626        C  0.33906120  0.74833467  0.60984256    -0.54300
C627        C  0.32750313  0.77754946  0.58401588     0.08900
C628        C  0.32789393  0.77455059  0.51916275     0.19800
C629        C  0.29830018  0.72029179  0.53012895    -0.55000
C630        C  0.26903422  0.75624315  0.00729172     0.09000
C631        C  0.39625096  0.72949525  0.53874003    -0.54500
C632        C  0.38419814  0.75713377  0.50763991     0.09500
H633        H  0.34162019  0.74549941  0.65406392     0.14100
H634        H  0.31330834  0.80122838  0.00093344    -0.00200
H635        H  0.52504373  0.69810055  0.52069626     0.14400
H636        H  0.43322731  0.71403636  0.53377518     0.14200
C637        C  0.45092339  0.86663162  0.81806583     0.86000
C638        C  0.49787837  0.85318639  0.78345489    -0.54300
C639        C  0.48802493  0.82521308  0.75368880     0.08900
C640        C  0.43357053  0.81126355  0.76735818     0.19800
C641        C  0.40023225  0.86779740  0.77691000    -0.55000
C642        C  0.39086466  0.83917428  0.74941674     0.09000
C643        C  0.44302340  0.83931153  0.85754499    -0.54500
C644        C  0.43481803  0.80981878  0.83259653     0.09500
H645        H  0.28579703  0.86759998  0.77547338     0.14100
H646        H  0.42651921  0.78813411  0.74467700    -0.00200
H647        H  0.37567057  0.89047532  0.76808809     0.14400
H648        H  0.44571871  0.84318759  0.90175761     0.14200
C649        C  0.43303094  0.72084842  0.87876929     0.86000
C650        C  0.43025339  0.74956391  0.84031433    -0.54300
C651        C  0.43213800  0.77929649  0.86610104     0.08900
C652        C  0.43589597  0.77682472  0.93158217     0.19800
C653        C  0.48536114  0.72447159  0.91718203    -0.55000
C654        C  0.48635528  0.75312213  0.94715303     0.09000
C655        C  0.38603810  0.72839211  0.91609954    -0.54500
C656        C  0.38799640  0.75660766  0.94659352     0.09500
H657        H  0.42827232  0.74590889  0.79612826     0.14100
H658        H  0.43690334  0.80045467  0.95433831    -0.00200
H659        H  0.51495072  0.70426443  0.92739040     0.14400
H660        H  0.35918636  0.70949095  0.92502198     0.14200
C661        C  0.28108261  0.22212530  0.63819077     0.86000
C662        C  0.28581497  0.25049790  0.59941326    -0.54300
C663        C  0.29077379  0.28009767  0.62525198     0.08900
C664        C  0.29220543  0.27778764  0.69038304     0.19800
C665        C  0.33190072  0.22262834  0.67887480    -0.55000
C666        C  0.33781348  0.25119413  0.70792055     0.09000
C667        C  0.23195438  0.23392590  0.67100453    -0.54500
C668        C  0.23929605  0.26153416  0.70271660     0.09500
H669        H  0.28269012  0.24773056  0.55519582     0.14100
H670        H  0.29634362  0.30109920  0.71349946    -0.00200
H671        H  0.35894126  0.20070458  0.68657135     0.14400
H672        H  0.44882720  0.22071161  0.68670593     0.14200
C673        C  0.30552056  0.36839422  0.57874425     0.86000
C674        C  0.35367386  0.35525482  0.54572708    -0.54300
C675        C  0.34402866  0.32802166  0.51428930     0.08900
C676        C  0.29016909  0.31308990  0.52702231     0.19800
C677        C  0.25433474  0.36900878  0.53828397    -0.55000
C678        C  0.24173586  0.33811949  0.01322971     0.09000
C679        C  0.29966851  0.34042259  0.61792276    -0.54500
C680        C  0.29222542  0.31095669  0.59227988     0.09500
H681        H  0.38889745  0.36917801  0.54022024     0.14100
H682        H  0.28282157  0.28840773  0.00627096    -0.00200
H683        H  0.48373940  0.39180016  0.53059377     0.14400
H684        H  0.30450407  0.34348009  0.66216828     0.14200
C685        C  0.44250222  0.22348035  0.82638781     0.86000
C686        C  0.43190687  0.25144628  0.86676086    -0.54300
C687        C  0.41743641  0.28087805  0.84274793     0.08900
C688        C  0.41417724  0.27903636  0.77738342     0.19800
C689        C  0.39049263  0.22335489  0.78739923    -0.55000
C690        C  0.37581881  0.25173364  0.75973205     0.09000
C691        C  0.48689592  0.23608603  0.79233953    -0.54500
C692        C  0.47117366  0.26397283  0.76272350     0.09500
H693        H  0.43879056  0.24837563  0.91073609     0.14100
H694        H  0.40248731  0.30234620  0.75570097    -0.00200
H695        H  0.36975952  0.20104330  0.77903093     0.14400
H696        H  0.26842482  0.21537173  0.77431823     0.14200
C697        C  0.38628509  0.36868941  0.89502037     0.86000
C698        C  0.34207470  0.35665807  0.92990894    -0.54300
C699        C  0.35732002  0.32838314  0.95833311     0.08900
C700        C  0.41338325  0.31268541  0.94317392     0.19800
C701        C  0.43852956  0.36801094  0.93429553    -0.55000
C702        C  0.45262235  0.33932900  0.96122355     0.09000
C703        C  0.39599329  0.34081542  0.85428221    -0.54500
C704        C  0.40968004  0.31116976  0.87784760     0.09500
H705        H  0.30628749  0.37141011  0.94052903     0.14100
H706        H  0.42416957  0.28930830  0.96486623    -0.00200
H707        H  0.46006391  0.39000307  0.94315577     0.14400
H708        H  0.39119242  0.34467736  0.81024566     0.14200
O709        O  0.42799467  0.57302363  0.77193037    -0.75000
O710        O  0.38110734  0.50693841  0.67004301    -0.75000
O711        O  0.39225929  0.57270784  0.66661287    -0.75000
O712        O  0.41688306  0.50686821  0.77561680    -0.75100
O713        O  0.33094577  0.51652918  0.79975855    -0.75000
O714        O  0.30559749  0.58190492  0.68926474    -0.75000
O715        O  0.29495234  0.51547099  0.69463972    -0.75000
O716        O  0.34131114  0.58282256  0.79408195    -0.75000
Ni717      Ni  0.40764701  0.53948751  0.72031962     1.25400
Ni718      Ni  0.31507369  0.54950907  0.74533151     1.25400
C719        C  0.39115117  0.59079178  0.79549037     0.87200
C720        C  0.33127220  0.49894315  0.66838503     0.87100
C721        C  0.34637228  0.58992803  0.66350726     0.87200
C722        C  0.37657444  0.49896285  0.80203886     0.87300
O723        O  0.46486789  0.01155893  0.54495218    -0.75000
O724        O  0.42850809  0.07922716  0.93446115    -0.75000
O725        O  0.43217409  0.01162410  0.93350657    -0.75000
O726        O  0.46185256  0.07887379  0.54547872    -0.75100
O727        O  0.29780418  0.07562773  0.52094076    -0.75000
O728        O  0.27428909  0.00762416  0.91558563    -0.75000
O729        O  0.26961792  0.07427464  0.91331205    -0.75000
O730        O  0.29464584  0.00861204  0.52280096    -0.75000
Ni731      Ni  0.44242493  0.04526331  0.98786234     1.25400
Ni732      Ni  0.29268176  0.04174581  0.96646888     1.25400
C733        C  0.25568606  0.99815008  0.54856342     0.87200
C734        C  0.46783817  0.09096742  0.91083812     0.87100
C735        C  0.47294021  0.99771754  0.90984770     0.87200
C736        C  0.26012393  0.09079035  0.54729767     0.87300
C737        C  0.42015134  0.41121636  0.83672863    -0.21800
C738        C  0.37777084  0.40235485  0.86840857    -0.09900
C739        C  0.33509896  0.42651004  0.87864378     0.29000
C740        C  0.33717489  0.45842853  0.86005004    -0.21800
C741        C  0.38028436  0.46702714  0.82956702    -0.09900
C742        C  0.42156665  0.44284574  0.81747831     0.29000
F743        F  0.46265348  0.44920735  0.78551451    -0.20400
H744        H  0.45352222  0.39348644  0.82785151     0.17300
H745        H  0.30383452  0.47630365  0.86832700     0.17400
F746        F  0.29073722  0.42038229  0.90561950    -0.20400
C747        C  0.43170698  0.18140922  0.89942820    -0.21800
C748        C  0.45499926  0.18936419  0.85058476    -0.09900
C749        C  0.47881130  0.16331500  0.81910947     0.29000
C750        C  0.48255348  0.13114616  0.83828335    -0.21800
C751        C  0.45953138  0.12382132  0.88704256    -0.09900
C752        C  0.43446299  0.14925424  0.91767906     0.29000
F753        F  0.41450164  0.14322331  0.96670363    -0.20400
H754        H  0.40947712  0.19973157  0.92320900     0.17300
H755        H  0.29581620  0.12077266  0.86221421     0.17400
F756        F  0.30078209  0.18018509  0.83900422    -0.20400
C757        C  0.33817529  0.42578570  0.57368836    -0.21800
C758        C  0.31193300  0.40262687  0.60315708    -0.09900
C759        C  0.28323217  0.41410107  0.64868221     0.29000
C760        C  0.28684388  0.44637168  0.66762359    -0.21800
C761        C  0.31770139  0.46806391  0.64095188    -0.09900
C762        C  0.34200332  0.45783821  0.59287854     0.29000
F763        F  0.36903317  0.47898079  0.56419407    -0.20400
H764        H  0.35550869  0.41952581  0.53507238     0.17300
H765        H  0.26698781  0.45414271  0.70433340     0.17400
F766        F  0.25082211  0.39458601  0.67443171    -0.20400
C767        C  0.46982846  0.17432806  0.61147008    -0.21800
C768        C  0.27665053  0.18756633  0.61407925    -0.09900
C769        C  0.26354231  0.16182217  0.64807791     0.29000
C770        C  0.25864236  0.13012210  0.62682726    -0.21800
C771        C  0.27057906  0.12279141  0.57264548    -0.09900
C772        C  0.46706146  0.14171455  0.59488328     0.29000
F773        F  0.41794697  0.12819647  0.59556374    -0.20400
H774        H  0.43205781  0.18703261  0.62274999     0.17300
H775        H  0.24604248  0.11121805  0.65283053     0.17400
F776        F  0.25569584  0.16717601  0.70216255    -0.20400
C777        C  0.46865824  0.66189666  0.85408711    -0.21800
C778        C  0.42694728  0.68769849  0.85020774    -0.09900
C779        C  0.37523138  0.68112374  0.82436525     0.29000
C780        C  0.36351636  0.64917208  0.81036121    -0.21800
C781        C  0.40402607  0.62324375  0.81759502    -0.09900
C782        C  0.45735801  0.63004564  0.83762215     0.29000
F783        F  0.49821832  0.60581697  0.84263308    -0.20400
H784        H  0.51010727  0.66565434  0.86983513     0.17300
H785        H  0.32270274  0.64481888  0.79276450     0.17400
F786        F  0.33477010  0.70543464  0.81556315    -0.20400
C787        C  0.41657272  0.95113263  0.88147338    -0.21800
C788        C  0.46718751  0.96546122  0.88277057    -0.09900
C789        C  0.20427062  0.93874042  0.92055594     0.29000
C790        C  0.50939332  0.91399725  0.84965442    -0.21800
C791        C  0.45817181  0.90002692  0.84547078    -0.09900
C792        C  0.41219370  0.91872483  0.86415574     0.29000
F793        F  0.36249015  0.90589846  0.86488253    -0.20400
H794        H  0.38035565  0.96472675  0.89526628     0.17300
H795        H  0.18707736  0.88919492  0.92525941     0.15200
F796        F  0.19222434  0.94447048  0.97347254    -0.20400
C797        C  0.31833679  0.68000549  0.63888145    -0.21800
C798        C  0.35475213  0.68582292  0.59840944    -0.09900
C799        C  0.38348175  0.65829670  0.57502156     0.29000
C800        C  0.37897861  0.62691055  0.59499667    -0.21800
C801        C  0.34361337  0.62173687  0.63612874    -0.09900
C802        C  0.31269397  0.64857596  0.65745936     0.29000
F803        F  0.27775733  0.64471526  0.69727799    -0.20400
H804        H  0.29211750  0.69976178  0.65498709     0.17300
H805        H  0.40294035  0.60644180  0.57781481     0.17400
F806        F  0.41381151  0.66078549  0.53114565    -0.20400
C807        C  0.31747443  0.91362041  0.58369290    -0.21800
C808        C  0.27257346  0.89848210  0.60271726    -0.09900
C809        C  0.22114710  0.91668785  0.60165353     0.29000
C810        C  0.49268579  0.95613038  0.61775329    -0.21800
C811        C  0.26330643  0.96540238  0.57359945    -0.09900
C812        C  0.31366547  0.94675025  0.57131164     0.29000
F813        F  0.35950540  0.96028721  0.55668218    -0.20400
H814        H  0.35706573  0.90008378  0.58174849     0.17300
H815        H  0.46996454  0.97513793  0.63993477     0.17400
F816        F  0.47367111  0.91854722  0.68468584    -0.20400
C817        C  0.54412345  0.86680191  0.13537210     0.86000
C818        C  0.49950187  0.85526775  0.17039953    -0.54300
C819        C  0.51406114  0.82703989  0.19947000     0.08900
C820        C  0.56976950  0.81087092  0.18415889     0.19800
C821        C  0.59690216  0.86583191  0.17337173    -0.55000
C822        C  0.61002188  0.83720074  0.20094209     0.09000
C823        C  0.55243607  0.83848394  0.09491759    -0.54500
C824        C  0.56524251  0.80886838  0.11911866     0.09500
H825        H  0.72063525  0.87321374  0.18579057     0.14100
H826        H  0.58051513  0.78754403  0.20603715    -0.00200
H827        H  0.61933983  0.88758867  0.18131717     0.14400
H828        H  0.54450017  0.84143780  0.05095904     0.14200
C829        C  0.57653639  0.71938687  0.06941023     0.86000
C830        C  0.57471293  0.74810699  0.10954144    -0.54300
C831        C  0.56774220  0.77800374  0.08509151     0.08900
C832        C  0.56335169  0.77591993  0.01995831     0.19800
C833        C  0.52391682  0.72421812  0.03154690    -0.55000
C834        C  0.53712726  0.74813080  0.50253048     0.09000
C835        C  0.62331826  0.72684458  0.03341633    -0.54500
C836        C  0.61555812  0.75577433  0.00507931     0.09500
H837        H  0.57943248  0.74461187  0.15360701     0.14100
H838        H  0.56937551  0.79715706  0.49882043    -0.00200
H839        H  0.74557189  0.70674565  0.02874244     0.14400
H840        H  0.65610952  0.70906995  0.02441673     0.14200
C841        C  0.70373953  0.86541256  0.32349245     0.86000
C842        C  0.75293850  0.85377960  0.29080888    -0.54300
C843        C  0.74572748  0.82633028  0.25874741     0.08900
C844        C  0.69247958  0.81004325  0.27045196     0.19800
C845        C  0.65323088  0.86531130  0.28259142    -0.55000
C846        C  0.64733778  0.83699772  0.25303748     0.09000
C847        C  0.69848774  0.83689112  0.36171926    -0.54500
C848        C  0.69334552  0.80741189  0.33562452     0.09500
H849        H  0.53569003  0.87049448  0.27481434     0.14100
H850        H  0.68815543  0.78677166  0.24718253    -0.00200
H851        H  0.62654178  0.88737743  0.27487364     0.14400
H852        H  0.70182144  0.83946585  0.40589554     0.14200
C853        C  0.69204984  0.71791695  0.38345427     0.86000
C854        C  0.68914107  0.74652335  0.34384228    -0.54300
C855        C  0.69333347  0.77644576  0.36893015     0.08900
C856        C  0.70011367  0.77434792  0.43433327     0.19800
C857        C  0.74621299  0.72117050  0.41942923    -0.55000
C858        C  0.74992691  0.75008983  0.44835389     0.09000
C859        C  0.64712776  0.72683414  0.42271582    -0.54500
C860        C  0.65208164  0.75542759  0.45184657     0.09500
H861        H  0.68434987  0.74296431  0.29960302     0.14100
H862        H  0.70326173  0.79774448  0.45731323    -0.00200
H863        H  0.77665420  0.70117406  0.42737006     0.14400
H864        H  0.61948778  0.70881585  0.43377163     0.14200
C865        C  0.52786825  0.22102188  0.13936088     0.86000
C866        C  0.53078624  0.24923716  0.10055956    -0.54300
C867        C  0.53917279  0.27843486  0.12632449     0.08900
C868        C  0.54553089  0.27596854  0.19140000     0.19800
C869        C  0.58161629  0.22033275  0.17659917    -0.55000
C870        C  0.59080794  0.24866412  0.20547166     0.09000
C871        C  0.48338505  0.23276608  0.17805630    -0.54500
C872        C  0.49331115  0.26075885  0.20753594     0.09500
H873        H  0.52505956  0.24601230  0.05631732     0.14100
H874        H  0.55278609  0.29882735  0.21478960    -0.00200
H875        H  0.60799181  0.19799804  0.18274773     0.14400
H876        H  0.71037669  0.21331126  0.17906685     0.14200
C877        C  0.54990843  0.36703758  0.08186278     0.86000
C878        C  0.59781258  0.35526612  0.04747409    -0.54300
C879        C  0.58948791  0.32765165  0.01609708     0.08900
C880        C  0.53643892  0.31188793  0.02885672     0.19800
C881        C  0.49804045  0.36714721  0.04247039    -0.55000
C882        C  0.49765895  0.34053576  0.50962074     0.09000
C883        C  0.54557325  0.33855417  0.12018213    -0.54500
C884        C  0.53945430  0.30927644  0.09384976     0.09500
H885        H  0.63052715  0.37094897  0.04053376     0.14100
H886        H  0.53226999  0.28918960  0.50330070    -0.00200
H887        H  0.72472489  0.39089722  0.03454615     0.14400
H888        H  0.54961205  0.34093942  0.16432599     0.14200
C889        C  0.69378298  0.21900314  0.32465485     0.86000
C890        C  0.68379696  0.24717982  0.36436467    -0.54300
C891        C  0.67266267  0.27674802  0.33979055     0.08900
C892        C  0.66988775  0.27453061  0.27443500     0.19800
C893        C  0.64258371  0.21964496  0.28396014    -0.55000
C894        C  0.62988475  0.24816236  0.25640710     0.09000
C895        C  0.73891837  0.22952347  0.28952851    -0.54500
C896        C  0.72561677  0.25776135  0.26046648     0.09500
H897        H  0.68730944  0.24362012  0.40850302     0.14100
H898        H  0.66033005  0.29776423  0.25198122    -0.00200
H899        H  0.62056094  0.19790188  0.27461507     0.14400
H900        H  0.52947066  0.22059145  0.29019096     0.14200
C901        C  0.64409574  0.36538003  0.38871908     0.86000
C902        C  0.59803705  0.35365095  0.42188362    -0.54300
C903        C  0.61225242  0.32565975  0.45206275     0.08900
C904        C  0.66939744  0.31003168  0.43925522     0.19800
C905        C  0.69505584  0.36526823  0.42898396    -0.55000
C906        C  0.70829233  0.33713093  0.45750864     0.09000
C907        C  0.65479547  0.33695831  0.34921565    -0.54500
C908        C  0.66723724  0.30758113  0.37401897     0.09500
H909        H  0.56106259  0.36894074  0.42843026     0.14100
H910        H  0.67989495  0.28682408  0.46160281    -0.00200
H911        H  0.71607165  0.38741888  0.43738025     0.14400
H912        H  0.64891819  0.33973363  0.30507755     0.14200
O913        O  0.67690008  0.57236484  0.26875671    -0.75000
O914        O  0.62503123  0.50674168  0.16818895    -0.75000
O915        O  0.63258673  0.57308489  0.16559812    -0.75000
O916        O  0.66886703  0.50567646  0.27105278    -0.75100
O917        O  0.58565715  0.51405843  0.30293761    -0.75000
O918        O  0.54837066  0.58071710  0.19528077    -0.75000
O919        O  0.54162430  0.51355686  0.20032085    -0.75000
O920        O  0.59250763  0.58076985  0.29773168    -0.75000
Ni921      Ni  0.65384459  0.53921030  0.21737666     1.25400
Ni922      Ni  0.56399325  0.54757684  0.25016305     1.25400
C923        C  0.64182793  0.58912139  0.29624300     0.87200
C924        C  0.57633435  0.49764907  0.17126088     0.87100
C925        C  0.58595484  0.58947992  0.16573062     0.87200
C926        C  0.63147968  0.49696798  0.30077505     0.87300
O927        O  0.73193424  0.01349277  0.04904832    -0.75000
O928        O  0.68060275  0.07833645  0.43768294    -0.75000
O929        O  0.67877367  0.01150531  0.44010450    -0.75000
O930        O  0.73357278  0.07974484  0.04830256    -0.75100
O931        O  0.54665594  0.07707430  0.02039638    -0.75000
O932        O  0.52531412  0.00976770  0.42040042    -0.75000
O933        O  0.52201501  0.07698883  0.42106307    -0.75000
O934        O  0.55084752  0.00975965  0.02061168    -0.75000
Ni935      Ni  0.69176349  0.04585344  0.49290415     1.25400
Ni936      Ni  0.54098855  0.04309505  0.47366255     1.25400
C937        C  0.51194224  0.99790861  0.04461523     0.87200
C938        C  0.72058268  0.08838302  0.41305536     0.87100
C939        C  0.71824603  0.99660274  0.41579495     0.87200
C940        C  0.50592406  0.09088799  0.04415784     0.87300
C941        C  0.66233040  0.40620653  0.31651106    -0.21800
C942        C  0.63474041  0.39934123  0.36335504    -0.09900
C943        C  0.61147117  0.42622759  0.39321966     0.29000
C944        C  0.61175926  0.45819830  0.37380436    -0.21800
C945        C  0.63798701  0.46443395  0.32628765    -0.09900
C946        C  0.66353398  0.43808316  0.29791007     0.29000
F947        F  0.68731937  0.44281632  0.25029777    -0.20400
H948        H  0.68482458  0.38709654  0.29456050     0.17300
H949        H  0.59191641  0.47820786  0.39629466     0.17400
F950        F  0.59054852  0.42210698  0.44247399    -0.20400
C951        C  0.65766347  0.17056976  0.36805685    -0.21800
C952        C  0.70369483  0.18593573  0.35225481    -0.09900
C953        C  0.75584616  0.16873929  0.35862184     0.29000
C954        C  0.76019543  0.13594133  0.37353584    -0.21800
C955        C  0.71336990  0.12012459  0.38547447    -0.09900
C956        C  0.66188276  0.13782630  0.38244841     0.29000
F957        F  0.61550703  0.12377941  0.39415117    -0.20400
H958        H  0.61740741  0.18363063  0.36689307     0.17300
H959        H  0.51376312  0.11175122  0.32280800     0.17400
F960        F  0.50577537  0.16757619  0.27482437    -0.20400
C961        C  0.54860395  0.40871879  0.16215073    -0.21800
C962        C  0.55580842  0.40126116  0.10637923    -0.09900
C963        C  0.56487781  0.42723395  0.07113412     0.29000
C964        C  0.56968050  0.45899103  0.09172327    -0.21800
C965        C  0.56318154  0.46590118  0.14720785    -0.09900
C966        C  0.55227371  0.44064839  0.18224509     0.29000
F967        F  0.54832498  0.44652699  0.23681865    -0.20400
H968        H  0.53961985  0.39043462  0.19090345     0.17300
H969        H  0.57882028  0.47818572  0.06439810     0.17400
F970        F  0.56931519  0.42189298  0.01648569    -0.20400
C971        C  0.80635325  0.17864434  0.06284481    -0.21800
C972        C  0.51976677  0.18819101  0.11045902    -0.09900
C973        C  0.56364005  0.17164745  0.08457717     0.29000
C974        C  0.55977812  0.13945463  0.06584251    -0.21800
C975        C  0.51145893  0.12333202  0.07046995    -0.09900
C976        C  0.80763125  0.14653405  0.04279137     0.29000
F977        F  0.82039282  0.14060116  0.99029485    -0.20400
H978        H  0.81795413  0.19726460  0.03598873     0.17300
H979        H  0.59449061  0.12740729  0.04660058     0.17400
F980        F  0.61073389  0.18643316  0.07812335    -0.20400
C981        C  0.72128496  0.65670437  0.36442833    -0.21800
C982        C  0.68300307  0.68426923  0.35676256    -0.09900
C983        C  0.63165203  0.67933501  0.32834848     0.29000
C984        C  0.61818543  0.64802268  0.31129154    -0.21800
C985        C  0.65588098  0.62084411  0.32047935    -0.09900
C986        C  0.70788950  0.62544310  0.34629313     0.29000
F987        F  0.74533122  0.59958087  0.35518458    -0.20400
H988        H  0.76163846  0.65833425  0.38457416     0.17300
H989        H  0.57844441  0.64512387  0.28955727     0.17400
F990        F  0.59350656  0.70477424  0.31857989    -0.20400
C991        C  0.72311377  0.95764823  0.33593527    -0.21800
C992        C  0.71006811  0.96453546  0.38995537    -0.09900
C993        C  0.51937931  0.94787643  0.36810828     0.29000
C994        C  0.69394249  0.90732068  0.40210318    -0.21800
C995        C  0.70801222  0.89975031  0.34817077    -0.09900
C996        C  0.72040053  0.92583895  0.31451525     0.29000
F997        F  0.72922786  0.92073686  0.26056689    -0.20400
H998        H  0.73483504  0.97695810  0.31021350     0.17300
H999        H  0.55480148  0.90304122  0.33918108     0.15200
F1000       F  0.56724243  0.96233026  0.36403316    -0.20400
C1001       C  0.61068069  0.65858719  0.07197343    -0.21800
C1002       C  0.57993566  0.68528832  0.09496510    -0.09900
C1003       C  0.54521912  0.67851623  0.13664743     0.29000
C1004       C  0.54519871  0.64686964  0.15745597    -0.21800
C1005       C  0.57842128  0.62094740  0.13637742    -0.09900
C1006       C  0.61054975  0.62704427  0.09281197     0.29000
F1007       F  0.64197005  0.60243906  0.07011556    -0.20400
H1008       H  0.63404247  0.66122130  0.03671879     0.17300
H1009       H  0.52067639  0.64292417  0.19160573     0.17400
F1010       F  0.51096508  0.70242745  0.15736196    -0.20400
C1011       C  0.55347304  0.90837320  0.06097704    -0.21800
C1012       C  0.53243601  0.90102279  0.11123973    -0.09900
C1013       C  0.50970842  0.92743730  0.14273737     0.29000
C1014       C  0.73886220  0.95150071  0.09134148    -0.21800
C1015       C  0.52228982  0.96568147  0.07043556    -0.09900
C1016       C  0.54833757  0.94013772  0.04079208     0.29000
F1017       F  0.56738727  0.94568331  0.99108949    -0.20400
H1018       H  0.57548431  0.88984909  0.03740196     0.17300
H1019       H  0.69906955  0.96513933  0.08849545     0.17400
F1020       F  0.69240055  0.90599329  0.11415506    -0.20400
C1021       C  0.53602384  0.86452120  0.63260909     0.86000
C1022       C  0.49066690  0.85111401  0.66461593    -0.54300
C1023       C  0.50717447  0.82418313  0.69633214     0.08900
C1024       C  0.56580941  0.81022539  0.68476783     0.19800
C1025       C  0.58574364  0.86653471  0.67421466    -0.55000
C1026       C  0.60125150  0.83872782  0.70295274     0.09000
C1027       C  0.55105803  0.83624852  0.59397234    -0.54500
C1028       C  0.56620229  0.80734937  0.61975118     0.09500
H1029       H  0.70482129  0.87071738  0.68483320     0.14100
H1030       H  0.57805735  0.78743872  0.70778731    -0.00200
H1031       H  0.60466803  0.88944518  0.68265752     0.14400
H1032       H  0.54649968  0.83870003  0.54970844     0.14200
C1033       C  0.59746644  0.71831104  0.57256652     0.86000
C1034       C  0.58710258  0.74686430  0.61181532    -0.54300
C1035       C  0.57708425  0.77642863  0.58664896     0.08900
C1036       C  0.57744065  0.77391715  0.52156178     0.19800
C1037       C  0.54754311  0.71963903  0.53062357    -0.55000
C1038       C  0.51764567  0.75284978  0.00286097     0.09000
C1039       C  0.64491328  0.72842268  0.53952133    -0.54500
C1040       C  0.63326380  0.75645844  0.50924873     0.09500
H1041       H  0.58771175  0.74344488  0.65586266     0.14100
H1042       H  0.55779057  0.79949574  0.99792354    -0.00200
H1043       H  0.77542309  0.70060625  0.52126631     0.14400
H1044       H  0.67936747  0.71180870  0.53026258     0.14200
C1045       C  0.69854049  0.86780250  0.82320641     0.86000
C1046       C  0.74690108  0.85435711  0.79058801    -0.54300
C1047       C  0.73741549  0.82675900  0.75947525     0.08900
C1048       C  0.68311336  0.81228152  0.77204181     0.19800
C1049       C  0.64766073  0.86843499  0.78225227    -0.55000
C1050       C  0.63969708  0.83974538  0.75407118     0.09000
C1051       C  0.69136268  0.83988109  0.86246180    -0.54500
C1052       C  0.68381935  0.81043541  0.83696269     0.09500
H1053       H  0.52909178  0.86862677  0.77198430     0.14100
H1054       H  0.67706595  0.78914445  0.74902712    -0.00200
H1055       H  0.62202412  0.89084460  0.77417948     0.14400
H1056       H  0.69551259  0.84257498  0.90671393     0.14200
C1057       C  0.68168022  0.72107429  0.88178620     0.86000
C1058       C  0.67974829  0.74994155  0.84357513    -0.54300
C1059       C  0.68177082  0.77961279  0.86972693     0.08900
C1060       C  0.68507300  0.77695106  0.93498566     0.19800
C1061       C  0.73387736  0.72444532  0.92094204    -0.55000
C1062       C  0.73533647  0.75324640  0.95066987     0.09000
C1063       C  0.63446072  0.72873542  0.91852862    -0.54500
C1064       C  0.63684156  0.75683438  0.94905924     0.09500
H1065       H  0.67778481  0.74646068  0.79937038     0.14100
H1066       H  0.68584502  0.80041343  0.95822080    -0.00200
H1067       H  0.76344066  0.70424384  0.93121094     0.14400
H1068       H  0.60698898  0.71010043  0.92718422     0.14200
C1069       C  0.52620193  0.22351093  0.63946710     0.86000
C1070       C  0.53226981  0.25102973  0.60012007    -0.54300
C1071       C  0.54007032  0.28056285  0.62507976     0.08900
C1072       C  0.54249832  0.27900487  0.69050590     0.19800
C1073       C  0.57794689  0.22296398  0.67959512    -0.55000
C1074       C  0.58655845  0.25155121  0.70795086     0.09000
C1075       C  0.47947545  0.23636408  0.67478304    -0.54500
C1076       C  0.48892381  0.26420360  0.70490028     0.09500
H1077       H  0.52988478  0.24698120  0.55597123     0.14100
H1078       H  0.54880532  0.30236943  0.71282479    -0.00200
H1079       H  0.60339170  0.20048682  0.68768086     0.14400
H1080       H  0.69872755  0.21635459  0.68300875     0.14200
C1081       C  0.56146570  0.36724806  0.57617050     0.86000
C1082       C  0.60623441  0.35345271  0.53944673    -0.54300
C1083       C  0.59443681  0.32599484  0.50976009     0.08900
C1084       C  0.54057440  0.31228251  0.52563594     0.19800
C1085       C  0.50849008  0.36894976  0.53764870    -0.55000
C1086       C  0.49110521  0.33894766  0.01273554     0.09000
C1087       C  0.55526275  0.33985399  0.61587202    -0.54500
C1088       C  0.54485434  0.31060802  0.59107232     0.09500
H1089       H  0.63760843  0.36794313  0.52630076     0.14100
H1090       H  0.53126160  0.28876853  0.00542652    -0.00200
H1091       H  0.72913371  0.38922148  0.52854862     0.14400
H1092       H  0.55997138  0.34365269  0.66003446     0.14200
C1093       C  0.68769819  0.22167708  0.82847825     0.86000
C1094       C  0.67854974  0.24986442  0.86837073    -0.54300
C1095       C  0.66739546  0.27954246  0.84401424     0.08900
C1096       C  0.66440712  0.27740573  0.77847249     0.19800
C1097       C  0.63604345  0.22273652  0.78830324    -0.55000
C1098       C  0.62377638  0.25132581  0.76047009     0.09000
C1099       C  0.73265040  0.23198703  0.79278067    -0.54500
C1100       C  0.71982619  0.26027214  0.76372630     0.09500
H1101       H  0.68197347  0.24618843  0.91245380     0.14100
H1102       H  0.65506908  0.30083390  0.75649670    -0.00200
H1103       H  0.61424374  0.20100999  0.77846416     0.14400
H1104       H  0.52389898  0.22125123  0.78477234     0.14200
C1105       C  0.63638695  0.36797182  0.89452371     0.86000
C1106       C  0.59232681  0.35602590  0.92974054    -0.54300
C1107       C  0.60792637  0.32808452  0.95893204     0.08900
C1108       C  0.66444106  0.31252681  0.94421948     0.19800
C1109       C  0.68842587  0.36804856  0.93396289    -0.55000
C1110       C  0.70306515  0.33975474  0.96173925     0.09000
C1111       C  0.64679273  0.33973717  0.85452835    -0.54500
C1112       C  0.66074313  0.31028778  0.87877440     0.09500
H1113       H  0.55606294  0.37057138  0.93965144     0.14100
H1114       H  0.67580796  0.28929041  0.96623076    -0.00200
H1115       H  0.70945993  0.39025962  0.94216610     0.14400
H1116       H  0.64162774  0.34317128  0.81040426     0.14200
O1117       O  0.67994137  0.57345448  0.77581982    -0.75000
O1118       O  0.64265252  0.50540683  0.67501810    -0.75000
O1119       O  0.65172124  0.57108864  0.66919108    -0.75000
O1120       O  0.67097578  0.50730801  0.78162910    -0.75100
O1121       O  0.58282284  0.51612076  0.79905740    -0.75000
O1122       O  0.56290494  0.57909804  0.68447525    -0.75000
O1123       O  0.55430550  0.51305794  0.69234831    -0.75000
O1124       O  0.59123394  0.58287165  0.79088861    -0.75000
Ni1125     Ni  0.66445810  0.53896922  0.72492425     1.25400
Ni1126     Ni  0.56960918  0.54811579  0.74248104     1.25400
C1127       C  0.64089122  0.59129177  0.79565554     0.87200
C1128       C  0.59328229  0.49659070  0.66984183     0.87100
C1129       C  0.60527084  0.58745808  0.66166246     0.87200
C1130       C  0.62876947  0.49890319  0.80449692     0.87300
O1131       O  0.70917027  0.01300932  0.54647479    -0.75000
O1132       O  0.69217065  0.07981361  0.94409042    -0.75000
O1133       O  0.69118674  0.01291398  0.94529487    -0.75000
O1134       O  0.71136440  0.07958611  0.54488487    -0.75100
O1135       O  0.55030047  0.07684488  0.52821788    -0.75000
O1136       O  0.52009903  0.00964001  0.91425861    -0.75000
O1137       O  0.51628415  0.07673210  0.91390501    -0.75000
O1138       O  0.55336690  0.00901981  0.52699118    -0.75000
Ni1139     Ni  0.70924996  0.04668477  0.99757285     1.25400
Ni1140     Ni  0.53659136  0.04320489  0.96665229     1.25400
C1141       C  0.51318588  0.99714030  0.54899192     0.87200
C1142       C  0.72923425  0.09063775  0.91629549     0.87100
C1143       C  0.72738811  0.99839653  0.91619397     0.87200
C1144       C  0.50889297  0.09099908  0.55054499     0.87300
C1145       C  0.66937859  0.41027742  0.83512206    -0.21800
C1146       C  0.62728859  0.40143895  0.86714319    -0.09900
C1147       C  0.58479485  0.42567188  0.87773345     0.29000
C1148       C  0.58733389  0.45777184  0.85999084    -0.21800
C1149       C  0.63102751  0.46653681  0.83050370    -0.09900
C1150       C  0.67147812  0.44212351  0.81712014     0.29000
F1151       F  0.71229431  0.44848845  0.78488056    -0.20400
H1152       H  0.70229726  0.39241968  0.82542530     0.17300
H1153       H  0.55417587  0.47573867  0.86849784     0.17400
F1154       F  0.54031998  0.41944379  0.90447222    -0.20400
C1155       C  0.65519648  0.16985500  0.86732211    -0.21800
C1156       C  0.69937129  0.18840246  0.85576964    -0.09900
C1157       C  0.75341616  0.17436519  0.86676734     0.29000
C1158       C  0.76238412  0.14149450  0.88097634    -0.21800
C1159       C  0.71808399  0.12262637  0.88953090    -0.09900
C1160       C  0.66420992  0.13725786  0.88301491     0.29000
F1161       F  0.62010873  0.12021094  0.89209244    -0.20400
H1162       H  0.61315482  0.18038830  0.86342873     0.17300
H1163       H  0.50242348  0.11179046  0.81440196     0.17400
F1164       F  0.49628276  0.16834132  0.76856409    -0.20400
C1165       C  0.61973687  0.41634726  0.59723858    -0.21800
C1166       C  0.57129520  0.40040061  0.60343859    -0.09900
C1167       C  0.52962145  0.41711052  0.63230474     0.29000
C1168       C  0.53550556  0.44914426  0.65157632    -0.21800
C1169       C  0.58292159  0.46517722  0.64229865    -0.09900
C1170       C  0.62448384  0.44852581  0.61409925     0.29000
F1171       F  0.67046762  0.46315813  0.60291750    -0.20400
H1172       H  0.65519756  0.40477898  0.57999824     0.17300
H1173       H  0.50344517  0.46110139  0.67470532     0.17400
F1174       F  0.48300491  0.40253416  0.64156194    -0.20400
C1175       C  0.78797180  0.17833412  0.56370112    -0.21800
C1176       C  0.51944708  0.18997980  0.61194731    -0.09900
C1177       C  0.56488666  0.17271974  0.58961794     0.29000
C1178       C  0.56223398  0.13996159  0.57311844    -0.21800
C1179       C  0.51365844  0.12382561  0.57633404    -0.09900
C1180       C  0.78550622  0.14653726  0.54291981     0.29000
F1181       F  0.79767091  0.14041319  0.49019024    -0.20400
H1182       H  0.80164208  0.19638351  0.53705678     0.17300
H1183       H  0.59806093  0.12749486  0.55643393     0.17400
F1184       F  0.61238618  0.18738409  0.58459429    -0.20400
C1185       C  0.71627071  0.66208794  0.85745505    -0.21800
C1186       C  0.67500966  0.68803114  0.85288310    -0.09900
C1187       C  0.62354038  0.68172128  0.82573318     0.29000
C1188       C  0.61226047  0.64993574  0.80944263    -0.21800
C1189       C  0.65226898  0.62384729  0.81822627    -0.09900
C1190       C  0.70492249  0.63037748  0.84072786     0.29000
F1191       F  0.74530118  0.60595642  0.84756533    -0.20400
H1192       H  0.75754280  0.66557617  0.87417622     0.17300
H1193       H  0.57232315  0.64582072  0.78901213     0.17400
F1194       F  0.58304230  0.70607239  0.81750102    -0.20400
C1195       C  0.72910511  0.95894886  0.83604236    -0.21800
C1196       C  0.71584349  0.96665420  0.88987590    -0.09900
C1197       C  0.51384611  0.94630978  0.86721295     0.29000
C1198       C  0.69122901  0.91067017  0.90085364    -0.21800
C1199       C  0.70581146  0.90219614  0.84737466    -0.09900
C1200       C  0.72232381  0.92743637  0.81421322     0.29000
F1201       F  0.73157579  0.92182351  0.76045405    -0.20400
H1202       H  0.74402601  0.97742191  0.81072254     0.17300
H1203       H  0.54687677  0.90006453  0.84068106     0.15200
F1204       F  0.56454147  0.95815962  0.87089797    -0.20400
C1205       C  0.64970726  0.66276094  0.59514786    -0.21800
C1206       C  0.60303231  0.68471996  0.59926992    -0.09900
C1207       C  0.55680706  0.67343563  0.62279212     0.29000
C1208       C  0.55629020  0.64097215  0.63844741    -0.21800
C1209       C  0.60247121  0.61905685  0.63330462    -0.09900
C1210       C  0.64931470  0.63029120  0.61142208     0.29000
F1211       F  0.69544865  0.61018165  0.60670990    -0.20400
H1212       H  0.68703981  0.66999159  0.57955639     0.17300
H1213       H  0.52009947  0.63338232  0.65652220     0.17400
F1214       F  0.51095317  0.69361967  0.62873607    -0.20400
C1215       C  0.55069690  0.90668552  0.56110407    -0.21800
C1216       C  0.52292545  0.89820053  0.60695372    -0.09900
C1217       C  0.49539272  0.92388389  0.63627124     0.29000
C1218       C  0.71713652  0.95146518  0.59368470    -0.21800
C1219       C  0.52047745  0.96408051  0.57224271    -0.09900
C1220       C  0.54934114  0.93905103  0.54384274     0.29000
F1221       F  0.57490565  0.94570251  0.49814227    -0.20400
H1222       H  0.57569820  0.88859651  0.53947881     0.17300
H1223       H  0.67736245  0.96510094  0.59240656     0.17400
F1224       F  0.67265022  0.90527489  0.61734014    -0.20400
C1225       C  0.79894516  0.86652217  0.13803120     0.86000
C1226       C  0.75340047  0.85617071  0.17342010    -0.54300
C1227       C  0.76569980  0.82749871  0.20187243     0.08900
C1228       C  0.82124645  0.81044923  0.18733234     0.19800
C1229       C  0.85011886  0.86508117  0.17814808    -0.55000
C1230       C  0.86192508  0.83646124  0.20560361     0.09000
C1231       C  0.80808795  0.83846206  0.09792657    -0.54500
C1232       C  0.81851362  0.80864476  0.12186488     0.09500
H1233       H  0.96258531  0.86925598  0.17581736     0.14100
H1234       H  0.83068502  0.78694630  0.20907223    -0.00200
H1235       H  0.87245757  0.88670214  0.18758978     0.14400
H1236       H  0.80452761  0.84235120  0.05388456     0.14200
C1237       C  0.82933555  0.71951649  0.06935035     0.86000
C1238       C  0.82879792  0.74790255  0.11041958    -0.54300
C1239       C  0.82184940  0.77800577  0.08666592     0.08900
C1240       C  0.81540788  0.77620041  0.02106535     0.19800
C1241       C  0.77445375  0.72545024  0.03493566    -0.55000
C1242       C  0.78545654  0.75071545  0.50175890     0.09000
C1243       C  0.87418407  0.72632571  0.03153464    -0.54500
C1244       C  0.86633773  0.75531194  0.00366902     0.09500
H1245       H  0.83201232  0.74427276  0.15446214     0.14100
H1246       H  0.81445773  0.80095848  0.49948999    -0.00200
H1247       H  0.00163515  0.70434719  0.02168601     0.14400
H1248       H  0.90494288  0.70720498  0.02114701     0.14200
C1249       C  0.95943280  0.86639416  0.32306424     0.86000
C1250       C  0.00505431  0.85469190  0.28545527    -0.54300
C1251       C  0.99686164  0.82651380  0.25609896     0.08900
C1252       C  0.94554908  0.81023298  0.27302657     0.19800
C1253       C  0.90605262  0.86521802  0.28602611    -0.55000
C1254       C  0.89893819  0.83644369  0.25780954     0.09000
C1255       C  0.95789187  0.83851452  0.36311547    -0.54500
C1256       C  0.95064234  0.80873139  0.33849167     0.09500
H1257       H  0.78589864  0.86950927  0.28519257     0.14100
H1258       H  0.93988581  0.78675219  0.25090779    -0.00200
H1259       H  0.87837130  0.88697766  0.27922511     0.14400
H1260       H  0.96201022  0.84254272  0.40723919     0.14200
C1261       C  0.93985769  0.72061787  0.38716270     0.86000
C1262       C  0.94041992  0.74878638  0.34761934    -0.54300
C1263       C  0.94764818  0.77848631  0.37253260     0.08900
C1264       C  0.95306643  0.77668949  0.43796503     0.19800
C1265       C  0.99389276  0.72205866  0.42365711    -0.55000
C1266       C  0.00028361  0.75059582  0.45253644     0.09000
C1267       C  0.89510134  0.73132331  0.42571705    -0.54500
C1268       C  0.90208652  0.75987195  0.45458381     0.09500
H1269       H  0.93582136  0.74490584  0.30350147     0.14100
H1270       H  0.95849403  0.80014605  0.46031149    -0.00200
H1271       H  0.02281858  0.70126048  0.43162860     0.14400
H1272       H  0.86587913  0.71430575  0.43671813     0.14200
C1273       C  0.79142289  0.22080458  0.14017288     0.86000
C1274       C  0.79265784  0.24952473  0.10122925    -0.54300
C1275       C  0.79386811  0.27937328  0.12697200     0.08900
C1276       C  0.79580413  0.27700716  0.19203391     0.19800
C1277       C  0.84156143  0.22337239  0.18092327    -0.55000
C1278       C  0.84406461  0.25213197  0.20993264     0.09000
C1279       C  0.74131007  0.23040621  0.17286805    -0.54500
C1280       C  0.74524985  0.25855272  0.20389720     0.09500
H1281       H  0.79005087  0.24671003  0.05702017     0.14100
H1282       H  0.79707439  0.30047439  0.21518790    -0.00200
H1283       H  0.86971100  0.20213923  0.19011140     0.14400
H1284       H  0.95698020  0.21698499  0.19266047     0.14200
C1285       C  0.80340013  0.36808873  0.08029978     0.86000
C1286       C  0.85053271  0.35515683  0.04603490    -0.54300
C1287       C  0.84047795  0.32793527  0.01468000     0.08900
C1288       C  0.78730262  0.31276353  0.02882133     0.19800
C1289       C  0.75097840  0.36856948  0.04132268    -0.55000
C1290       C  0.74582464  0.33787090  0.50988080     0.09000
C1291       C  0.79852757  0.33997768  0.11965449    -0.54500
C1292       C  0.79138368  0.31047624  0.09405434     0.09500
H1293       H  0.88443110  0.36990210  0.03914708     0.14100
H1294       H  0.78414844  0.28736178  0.50606243    -0.00200
H1295       H  0.97460823  0.39230288  0.03136520     0.14400
H1296       H  0.80472125  0.34259305  0.16381218     0.14200
C1297       C  0.94367380  0.22338848  0.33064771     0.86000
C1298       C  0.93555979  0.25199386  0.37042893    -0.54300
C1299       C  0.92333038  0.28151231  0.34572501     0.08900
C1300       C  0.91987098  0.27910208  0.28055929     0.19800
C1301       C  0.89123027  0.22461984  0.29214163    -0.55000
C1302       C  0.87905521  0.25299052  0.26364159     0.09000
C1303       C  0.98910678  0.23414472  0.29590314    -0.54500
C1304       C  0.97555585  0.26221996  0.26603590     0.09500
H1305       H  0.94185490  0.24922058  0.41444642     0.14100
H1306       H  0.91003468  0.30247985  0.25851464    -0.00200
H1307       H  0.86885046  0.20289035  0.28386627     0.14400
H1308       H  0.77208532  0.21257879  0.27774978     0.14200
C1309       C  0.88973884  0.36962849  0.39657799     0.86000
C1310       C  0.84599179  0.35701252  0.43177189    -0.54300
C1311       C  0.86180453  0.32827299  0.45947736     0.08900
C1312       C  0.91886038  0.31387321  0.44503530     0.19800
C1313       C  0.94121038  0.36985398  0.43655130    -0.55000
C1314       C  0.95644729  0.34138859  0.46332411     0.09000
C1315       C  0.90142737  0.34176490  0.35609255    -0.54500
C1316       C  0.91586163  0.31221102  0.37997416     0.09500
H1317       H  0.81171267  0.37249805  0.44437435     0.14100
H1318       H  0.93085870  0.29074763  0.46703384    -0.00200
H1319       H  0.96224906  0.39207030  0.44491322     0.14400
H1320       H  0.89683739  0.34548721  0.31199077     0.14200
O1321       O  0.92783853  0.57483149  0.27583139    -0.75000
O1322       O  0.89032943  0.50670792  0.17280077    -0.75000
O1323       O  0.90106754  0.57309057  0.16854766    -0.75000
O1324       O  0.91832163  0.50873549  0.28027310    -0.75100
O1325       O  0.83040032  0.51783492  0.29809816    -0.75000
O1326       O  0.81201107  0.58167568  0.18365458    -0.75000
O1327       O  0.80219170  0.51530159  0.19118828    -0.75000
O1328       O  0.83919664  0.58456601  0.29096933    -0.75000
Ni1329     Ni  0.91252156  0.54049708  0.22374616     1.25400
Ni1330     Ni  0.81774975  0.55020710  0.24155086     1.25400
C1331       C  0.88909400  0.59239642  0.29708141     0.87200
C1332       C  0.84062425  0.49827283  0.16879157     0.87100
C1333       C  0.85481761  0.58959375  0.16107108     0.87200
C1334       C  0.87647628  0.50071269  0.30418712     0.87300
O1335       O  0.96938653  0.01246890  0.04723777    -0.75000
O1336       O  0.92626636  0.07985105  0.44098295    -0.75000
O1337       O  0.92745424  0.01221506  0.43984185    -0.75000
O1338       O  0.96590855  0.07932757  0.04512886    -0.75100
O1339       O  0.81883634  0.07469921  0.02041099    -0.75000
O1340       O  0.76664442  0.00689587  0.41963377    -0.75000
O1341       O  0.76842888  0.07343070  0.41770439    -0.75000
O1342       O  0.81640545  0.00737878  0.01981061    -0.75000
Ni1343     Ni  0.93930603  0.04585921  0.49430301     1.25400
Ni1344     Ni  0.78597606  0.04060519  0.47141814     1.25400
C1345       C  0.77886337  0.99764222  0.04844068     0.87200
C1346       C  0.96582894  0.09125716  0.41733140     0.87100
C1347       C  0.96778516  0.99852226  0.41521653     0.87200
C1348       C  0.78221300  0.08950003  0.04867558     0.87300
C1349       C  0.92532695  0.41444872  0.34419211    -0.21800
C1350       C  0.88033716  0.40332477  0.36958437    -0.09900
C1351       C  0.83333798  0.42537794  0.37349017     0.29000
C1352       C  0.83355546  0.45772211  0.35544923    -0.21800
C1353       C  0.87990210  0.46885853  0.33270401    -0.09900
C1354       C  0.92598869  0.44669255  0.32773907     0.29000
F1355       F  0.97190115  0.45579572  0.30605222    -0.20400
H1356       H  0.96185603  0.39826040  0.33958139     0.17300
H1357       H  0.79652401  0.47376935  0.35765119     0.17400
F1358       F  0.78619711  0.41621719  0.39226647    -0.20400
C1359       C  0.93542043  0.18212109  0.40643294    -0.21800
C1360       C  0.95380783  0.18904422  0.35469595    -0.09900
C1361       C  0.97168272  0.16221172  0.32126886     0.29000
C1362       C  0.97540109  0.13018706  0.34120708    -0.21800
C1363       C  0.95764431  0.12393109  0.39296474    -0.09900
C1364       C  0.93716981  0.15009044  0.42519672     0.29000
F1365       F  0.91995434  0.14475039  0.47575558    -0.20400
H1366       H  0.91734501  0.20107856  0.43216838     0.17300
H1367       H  0.80091404  0.12355483  0.37902300     0.17400
F1368       F  0.80305102  0.18380560  0.35495470    -0.20400
C1369       C  0.80216257  0.41092554  0.15839476    -0.21800
C1370       C  0.81223801  0.40236398  0.10372863    -0.09900
C1371       C  0.82774308  0.42719193  0.06906312     0.29000
C1372       C  0.83759866  0.45841151  0.09004084    -0.21800
C1373       C  0.82852319  0.46625488  0.14472035    -0.09900
C1374       C  0.80981739  0.44253236  0.17845760     0.29000
F1375       F  0.80028257  0.44972563  0.23161088    -0.20400
H1376       H  0.78719039  0.39373708  0.18581982     0.17300
H1377       H  0.85133383  0.47660509  0.06338869     0.17400
F1378       F  0.83347825  0.42139520  0.01466856    -0.20400
C1379       C  0.97500339  0.17293153  0.11405519    -0.21800
C1380       C  0.79156942  0.18601352  0.11657506    -0.09900
C1381       C  0.78245447  0.15956585  0.15097155     0.29000
C1382       C  0.78115109  0.12764321  0.12976604    -0.21800
C1383       C  0.79315802  0.12102728  0.07534215    -0.09900
C1384       C  0.97333673  0.14046190  0.09716329     0.29000
F1385       F  0.92650715  0.12537538  0.10338738    -0.20400
H1386       H  0.93780537  0.18429176  0.12890434     0.17300
H1387       H  0.77062182  0.10812820  0.15571767     0.17400
F1388       F  0.77473917  0.16451613  0.20519575    -0.20400
C1389       C  0.96791143  0.66003923  0.36465656    -0.21800
C1390       C  0.92895988  0.68731879  0.36025561    -0.09900
C1391       C  0.87650205  0.68240081  0.33415612     0.29000
C1392       C  0.86270457  0.65103720  0.31712536    -0.21800
C1393       C  0.90134601  0.62397567  0.32365742    -0.09900
C1394       C  0.95421058  0.62890551  0.34714876     0.29000
F1395       F  0.99292600  0.60350509  0.35331988    -0.20400
H1396       H  0.00980251  0.66184983  0.38088501     0.17300
H1397       H  0.82237365  0.64814882  0.29659597     0.17400
F1398       F  0.83816735  0.70791424  0.32594412    -0.20400
C1399       C  0.91934149  0.94721004  0.39717895    -0.21800
C1400       C  0.96228616  0.96673392  0.38649925    -0.09900
C1401       C  0.69477936  0.93926801  0.42255281     0.29000
C1402       C  0.00662538  0.92044923  0.33980882    -0.21800
C1403       C  0.96337335  0.90061226  0.34909797    -0.09900
C1404       C  0.91977575  0.91459108  0.37884290     0.29000
F1405       F  0.87704090  0.89678098  0.38951341    -0.20400
H1406       H  0.88613939  0.95684410  0.42121161     0.17300
H1407       H  0.68079086  0.88908860  0.42879758     0.15200
F1408       F  0.68257015  0.94530757  0.47526693    -0.20400
C1409       C  0.86984798  0.67875473  0.14140733    -0.21800
C1410       C  0.83810837  0.68489358  0.09169849    -0.09900
C1411       C  0.82046678  0.65756608  0.05999737     0.29000
C1412       C  0.82509842  0.62630312  0.08254221    -0.21800
C1413       C  0.85316055  0.62110757  0.13384915    -0.09900
C1414       C  0.87828074  0.64705531  0.16164201     0.29000
F1415       F  0.91062344  0.64176578  0.20876312    -0.20400
H1416       H  0.88918987  0.69825134  0.16431558     0.17300
H1417       H  0.80806948  0.60605861  0.05944727     0.17400
F1418       F  0.80012463  0.66059100  0.00678174    -0.20400
C1419       C  0.83791852  0.91361326  0.09199297    -0.21800
C1420       C  0.79127722  0.89996125  0.11086249    -0.09900
C1421       C  0.74082566  0.91896894  0.10715817     0.29000
C1422       C  0.00351997  0.95905234  0.12264871    -0.21800
C1423       C  0.78599552  0.96553644  0.07535259    -0.09900
C1424       C  0.83573535  0.94613177  0.07541011     0.29000
F1425       F  0.88201234  0.95827327  0.05883995    -0.20400
H1426       H  0.87694809  0.89923577  0.09180488     0.17300
H1427       H  0.98118866  0.97813272  0.14499810     0.17400
F1428       F  0.98758155  0.92188559  0.19150911    -0.20400
C1429       C  0.78248984  0.86709827  0.63711751     0.86000
C1430       C  0.73879897  0.85479117  0.67232229    -0.54300
C1431       C  0.75519543  0.82698877  0.70173300     0.08900
C1432       C  0.81237817  0.81224266  0.68705086     0.19800
C1433       C  0.83369490  0.86824206  0.67756937    -0.55000
C1434       C  0.84945805  0.84000712  0.70474233     0.09000
C1435       C  0.79515655  0.83934746  0.59721955    -0.54500
C1436       C  0.81032519  0.81019405  0.62162478     0.09500
H1437       H  0.95008079  0.86411904  0.67270472     0.14100
H1438       H  0.82460416  0.78923252  0.70935664    -0.00200
H1439       H  0.85414115  0.89066507  0.68589704     0.14400
H1440       H  0.79127849  0.84285641  0.55305488     0.14200
C1441       C  0.84622107  0.72233931  0.57320131     0.86000
C1442       C  0.83351266  0.75058990  0.61213892    -0.54300
C1443       C  0.82186003  0.77994539  0.58717475     0.08900
C1444       C  0.82367496  0.77764674  0.52189946     0.19800
C1445       C  0.79703477  0.72256263  0.53053863    -0.55000
C1446       C  0.76814396  0.75375969  0.00573687     0.09000
C1447       C  0.89421463  0.73403710  0.54269591    -0.54500
C1448       C  0.88145948  0.76159423  0.51140083     0.09500
H1449       H  0.83489825  0.74720372  0.65619196     0.14100
H1450       H  0.80947587  0.79992656  0.99950433    -0.00200
H1451       H  0.02551276  0.69991382  0.52352547     0.14400
H1452       H  0.93247568  0.71961754  0.53885689     0.14200
C1453       C  0.95323120  0.86613299  0.82167147     0.86000
C1454       C  0.99955425  0.85176267  0.78708184    -0.54300
C1455       C  0.98771656  0.82457851  0.75621827     0.08900
C1456       C  0.93254738  0.81150354  0.76977374     0.19800
C1457       C  0.90124101  0.86819315  0.78219119    -0.55000
C1458       C  0.89054013  0.83998938  0.75372102     0.09000
C1459       C  0.94547242  0.83839446  0.86064368    -0.54500
C1460       C  0.93467702  0.80941354  0.83477346     0.09500
H1461       H  0.78105719  0.86902544  0.78420678     0.14100
H1462       H  0.92413748  0.78873581  0.74654860    -0.00200
H1463       H  0.87636349  0.89106570  0.77590144     0.14400
H1464       H  0.95011531  0.84156309  0.90493879     0.14200
C1465       C  0.93029220  0.72018165  0.87891259     0.86000
C1466       C  0.92766965  0.74915173  0.84073867    -0.54300
C1467       C  0.93046531  0.77876942  0.86702994     0.08900
C1468       C  0.93458985  0.77609885  0.93212715     0.19800
C1469       C  0.98328258  0.72366086  0.91682435    -0.55000
C1470       C  0.98507939  0.75241104  0.94661045     0.09000
C1471       C  0.88364641  0.72794166  0.91651166    -0.54500
C1472       C  0.88651524  0.75611290  0.94702028     0.09500
H1473       H  0.92552835  0.74574640  0.79648789     0.14100
H1474       H  0.93584047  0.79955686  0.95533743    -0.00200
H1475       H  0.01423657  0.70386563  0.92539502     0.14400
H1476       H  0.85596819  0.70941149  0.92531253     0.14200
C1477       C  0.77942966  0.22056053  0.64195727     0.86000
C1478       C  0.78270571  0.24888893  0.60259290    -0.54300
C1479       C  0.78824729  0.27859377  0.62783702     0.08900
C1480       C  0.79094309  0.27660233  0.69296734     0.19800
C1481       C  0.83102694  0.22145826  0.68154527    -0.55000
C1482       C  0.83706798  0.25023137  0.71001255     0.09000
C1483       C  0.73114267  0.23220607  0.67582006    -0.54500
C1484       C  0.73854037  0.26022739  0.70644621     0.09500
H1485       H  0.77809158  0.24606378  0.55845508     0.14100
H1486       H  0.79536926  0.30004478  0.71563428    -0.00200
H1487       H  0.85849068  0.19969078  0.68920191     0.14400
H1488       H  0.95033786  0.21885400  0.68768129     0.14200
C1489       C  0.80417536  0.36631416  0.57958082     0.86000
C1490       C  0.85340494  0.35221100  0.54890004    -0.54300
C1491       C  0.84373407  0.32548148  0.51663206     0.08900
C1492       C  0.78945261  0.31068090  0.52879071     0.19800
C1493       C  0.75382816  0.36666454  0.53785757    -0.55000
C1494       C  0.74250928  0.34004374  0.01269401     0.09000
C1495       C  0.79647477  0.33900231  0.61933047    -0.54500
C1496       C  0.78987791  0.30920011  0.59423486     0.09500
H1497       H  0.89027532  0.36486681  0.54563855     0.14100
H1498       H  0.78101135  0.28964569  0.00577625    -0.00200
H1499       H  0.98310710  0.39223306  0.53484088     0.14400
H1500       H  0.79899959  0.34287735  0.66348939     0.14200
C1501       C  0.94125945  0.22271392  0.82865653     0.86000
C1502       C  0.93181743  0.25139713  0.86817760    -0.54300
C1503       C  0.91829296  0.28069585  0.84314232     0.08900
C1504       C  0.91488221  0.27799567  0.77796526     0.19800
C1505       C  0.88886643  0.22293115  0.79017668    -0.55000
C1506       C  0.87539079  0.25103713  0.76147671     0.09000
C1507       C  0.98602164  0.23407183  0.79367092    -0.54500
C1508       C  0.97139235  0.26203356  0.76380216     0.09500
H1509       H  0.93842291  0.24902489  0.91222552     0.14100
H1510       H  0.90397877  0.30112125  0.75547837    -0.00200
H1511       H  0.86655883  0.20103179  0.78317070     0.14400
H1512       H  0.76563987  0.21471881  0.78116909     0.14200
C1513       C  0.88519387  0.36919280  0.89236623     0.86000
C1514       C  0.84155196  0.35710628  0.92821365    -0.54300
C1515       C  0.85753274  0.32896454  0.95704658     0.08900
C1516       C  0.91407971  0.31385361  0.94220042     0.19800
C1517       C  0.93732594  0.36949475  0.93171430    -0.55000
C1518       C  0.95233194  0.34118880  0.95937006     0.09000
C1519       C  0.89599852  0.34090096  0.85252872    -0.54500
C1520       C  0.91045309  0.31156034  0.87704171     0.09500
H1521       H  0.80644470  0.37223144  0.93991128     0.14100
H1522       H  0.92577752  0.29082829  0.96463135    -0.00200
H1523       H  0.95847072  0.39172137  0.93959464     0.14400
H1524       H  0.89111436  0.34423899  0.80836143     0.14200
O1525       O  0.92226126  0.57347294  0.76666074    -0.75000
O1526       O  0.87662855  0.50796945  0.66341353    -0.75000
O1527       O  0.88758811  0.57394384  0.66117762    -0.75000
O1528       O  0.91094679  0.50717653  0.76894085    -0.75100
O1529       O  0.82479970  0.51670503  0.79237314    -0.75000
O1530       O  0.80042745  0.58271554  0.68228227    -0.75000
O1531       O  0.79012389  0.51580216  0.68699485    -0.75000
O1532       O  0.83515518  0.58341250  0.78728905    -0.75000
Ni1533     Ni  0.90237414  0.54027530  0.71427578     1.25400
Ni1534     Ni  0.80943099  0.54999613  0.73804518     1.25400
C1535       C  0.88517496  0.59122633  0.78985241     0.87200
C1536       C  0.82725882  0.49921836  0.66181393     0.87100
C1537       C  0.84178074  0.59126298  0.65792648     0.87200
C1538       C  0.87045559  0.49910725  0.79500097     0.87300
O1539       O  0.95836075  0.01185435  0.54651530    -0.75000
O1540       O  0.93036207  0.07892376  0.94025189    -0.75000
O1541       O  0.93395437  0.01116998  0.94170717    -0.75000
O1542       O  0.95786426  0.07903204  0.54706970    -0.75100
O1543       O  0.79917480  0.07475443  0.52426851    -0.75000
O1544       O  0.77550596  0.00885187  0.91516209    -0.75000
O1545       O  0.77744086  0.07602891  0.91655003    -0.75000
O1546       O  0.79699541  0.00813947  0.52655127    -0.75000
Ni1547     Ni  0.94677488  0.04554021  0.99430714     1.25400
Ni1548     Ni  0.80022351  0.04155600  0.96698584     1.25400
C1549       C  0.75688534  0.99791280  0.55072930     0.87200
C1550       C  0.96839575  0.09043845  0.91440717     0.87100
C1551       C  0.97333013  0.99717939  0.91610575     0.87200
C1552       C  0.75999361  0.08963155  0.54895679     0.87300
C1553       C  0.91911552  0.41260130  0.83539383    -0.21800
C1554       C  0.87550454  0.40253652  0.86423804    -0.09900
C1555       C  0.82954101  0.42520296  0.86966033     0.29000
C1556       C  0.82943352  0.45698193  0.84930629    -0.21800
C1557       C  0.87443738  0.46712353  0.82302109    -0.09900
C1558       C  0.91939616  0.44437649  0.81616792     0.29000
F1559       F  0.96366677  0.45241902  0.79011199    -0.20400
H1560       H  0.95463065  0.39584117  0.82951259     0.17300
H1561       H  0.79341016  0.47360048  0.85354577     0.17400
F1562       F  0.78410455  0.41756745  0.89356478    -0.20400
C1563       C  0.93777911  0.18142300  0.90566023    -0.21800
C1564       C  0.95305790  0.18848963  0.85274414    -0.09900
C1565       C  0.97004182  0.16183416  0.81853458     0.29000
C1566       C  0.97447973  0.12972479  0.83806957    -0.21800
C1567       C  0.95902606  0.12323495  0.89063394    -0.09900
C1568       C  0.94087210  0.14933044  0.92433853     0.29000
F1569       F  0.92785891  0.14391526  0.97641829    -0.20400
H1570       H  0.92132371  0.20023214  0.93262686     0.17300
H1571       H  0.80444080  0.13133802  0.88829398     0.17400
F1572       F  0.79767775  0.19259836  0.86685377    -0.20400
C1573       C  0.84387387  0.42220381  0.57701108    -0.21800
C1574       C  0.81069872  0.40089859  0.60272256    -0.09900
C1575       C  0.77621962  0.41456442  0.64234229     0.29000
C1576       C  0.77918735  0.44738468  0.65908642    -0.21800
C1577       C  0.81572154  0.46738878  0.63606498    -0.09900
C1578       C  0.84774829  0.45446575  0.59458051     0.29000
F1579       F  0.88306832  0.47305762  0.57073371    -0.20400
H1580       H  0.86621580  0.41484001  0.54183325     0.17300
H1581       H  0.75396075  0.45691967  0.69115465     0.17400
F1582       F  0.73896722  0.39649457  0.66423419    -0.20400
C1583       C  0.96957846  0.17456567  0.61006159    -0.21800
C1584       C  0.77489388  0.18599005  0.61791201    -0.09900
C1585       C  0.76261498  0.15992775  0.65174766     0.29000
C1586       C  0.75788150  0.12826837  0.62989773    -0.21800
C1587       C  0.76917567  0.12148986  0.57529233    -0.09900
C1588       C  0.96577567  0.14194793  0.59444567     0.29000
F1589       F  0.91594519  0.12926533  0.59486443    -0.20400
H1590       H  0.93194697  0.18794926  0.62019853     0.17300
H1591       H  0.74613586  0.10901916  0.65570053     0.17400
F1592       F  0.75557514  0.16491474  0.70611003    -0.20400
C1593       C  0.96320366  0.66032881  0.85567190    -0.21800
C1594       C  0.92320105  0.68704148  0.85009052    -0.09900
C1595       C  0.87209067  0.68155728  0.82158380     0.29000
C1596       C  0.85967982  0.65005059  0.80483727    -0.21800
C1597       C  0.89845204  0.62333295  0.81347601    -0.09900
C1598       C  0.95105618  0.62889857  0.83738524     0.29000
F1599       F  0.99039253  0.60384841  0.84416993    -0.20400
H1600       H  0.00414172  0.66294892  0.87422706     0.17300
H1601       H  0.81962535  0.64663279  0.78411415     0.17400
F1602       F  0.83299506  0.70655208  0.81212576    -0.20400
C1603       C  0.92666813  0.94494192  0.90597262    -0.21800
C1604       C  0.96605448  0.96515266  0.88862221    -0.09900
C1605       C  0.69593474  0.94239846  0.92164439     0.29000
C1606       C  0.99956391  0.92079615  0.82989849    -0.21800
C1607       C  0.96132216  0.89979558  0.84834955    -0.09900
C1608       C  0.92415211  0.91277619  0.88611096     0.29000
F1609       F  0.88448517  0.89455410  0.90321508    -0.20400
H1610       H  0.89845812  0.95375956  0.93601189     0.17300
H1611       H  0.67484253  0.89327535  0.92688910     0.15200
F1612       F  0.68291334  0.94906063  0.97402768    -0.20400
C1613       C  0.81198571  0.68164984  0.63569144    -0.21800
C1614       C  0.85210944  0.68873141  0.59965879    -0.09900
C1615       C  0.88472102  0.66212144  0.57855603     0.29000
C1616       C  0.87937913  0.63028184  0.59595790    -0.21800
C1617       C  0.83992702  0.62370348  0.63241022    -0.09900
C1618       C  0.80578582  0.64976868  0.65180823     0.29000
F1619       F  0.76717850  0.64477393  0.68750374    -0.20400
H1620       H  0.78329389  0.70080512  0.64981323     0.17300
H1621       H  0.90614765  0.61054862  0.58046841     0.17400
F1622       F  0.91977810  0.66585800  0.53900362    -0.20400
C1623       C  0.81610926  0.91382777  0.58852541    -0.21800
C1624       C  0.77101246  0.89997155  0.60944115    -0.09900
C1625       C  0.72019995  0.91866152  0.60846015     0.29000
C1626       C  0.98633787  0.95623805  0.61910444    -0.21800
C1627       C  0.76368532  0.96582216  0.57704891    -0.09900
C1628       C  0.81328109  0.94649393  0.57427629     0.29000
F1629       F  0.85909149  0.95876063  0.55685587    -0.20400
H1630       H  0.85507563  0.89961655  0.58621797     0.17300
H1631       H  0.96260083  0.97508472  0.64059133     0.17400
F1632       F  0.96719012  0.91858200  0.68602055    -0.20400
loop_ 
_geom_bond_atom_site_label_1 
_geom_bond_atom_site_label_2 
_geom_bond_distance 
_geom_bond_site_symmetry_2 
_ccdc_geom_bond_type 
C1            C2   1.539   1_455  S
C1            C7   1.520       .  S
C1            C5   1.528       .  S
C1          C196   1.525       .  S
C2            C3   1.374   1_655  D
C2         H1233   1.078       .  S
C3            C4   1.548       .  S
C3         C1251   1.510   1_455  S
C4            C8   1.596       .  S
C4            C6   1.543       .  S
C4           H10   1.106       .  S
C5            C6   1.365       .  D
C5           H11   1.086       .  S
C6           C30   1.512       .  S
C7            C8   1.360       .  D
C7           H12   1.082       .  S
C8           C15   1.508       .  S
H9          C410   1.080       .  S
C13          C14   1.508       .  S
C13          C19   1.536       .  S
C13          C17   1.527       .  S
C13         C186   1.520       .  S
C14          C15   1.358       .  D
C14          H21   1.082       .  S
C15          C16   1.596       .  S
C16          C20   1.545   1_554  S
C16         C222   1.551       .  S
C16         H226   1.108   1_554  S
C17         C222   1.364       .  D
C17        H1247   1.086       .  S
C18         C220   1.538       .  S
C18         C221   1.363       .  D
C18        C1266   1.504       .  S
C19          C20   1.370   1_554  D
C19          H24   1.075       .  S
C20         C248   1.508       .  S
H22         C220   1.106       .  S
H23         C425   1.075       .  S
C25          C26   1.539       .  S
C25          C31   1.525       .  S
C25          C29   1.525       .  S
C25         C179   1.530       .  S
C26          C27   1.376       .  D
C26         H441   1.085       .  S
C27          C28   1.548       .  S
C27         C411   1.507       .  S
C28          C32   1.591       .  S
C28          C30   1.546       .  S
C28          H34   1.107       .  S
C29          C30   1.365       .  D
C29          H35   1.086       .  S
C31          C32   1.364       .  D
C31          H36   1.078       .  S
C32          C39   1.514       .  S
H33        C1250   1.079       .  S
C37          C38   1.517       .  S
C37          C43   1.533       .  S
C37          C41   1.540       .  S
C37         C166   1.530       .  S
C38          C39   1.364       .  D
C38          H45   1.083       .  S
C39          C40   1.592       .  S
C40          C44   1.544       .  S
C40          C42   1.540       .  S
C40          H46   1.107       .  S
C41          C42   1.366       .  D
C41          H47   1.078       .  S
C42         C426   1.502       .  S
C43          C44   1.368       .  D
C43          H48   1.085       .  S
C44         C224   1.504       .  S
C49          C50   1.513       .  S
C49          C55   1.537   1_455  S
C49          C53   1.535       .  S
C49         C156   1.529       .  S
C50          C51   1.363       .  D
C50          H57   1.082       .  S
C51          C52   1.591       .  S
C51          C68   1.509       .  S
C52          C56   1.542   1_455  S
C52          C54   1.542       .  S
C52          H58   1.106       .  S
C53          C54   1.372       .  D
C53          H59   1.086       .  S
C54          C78   1.510       .  S
C55          C56   1.366       .  D
C55        H1284   1.076       .  S
C56        C1304   1.501       .  S
H60         C463   1.081       .  S
C61          C62   1.535       .  S
C61          C67   1.525       .  S
C61          C65   1.529       .  S
C61         C146   1.530       .  S
C62          C63   1.372       .  D
C62          H69   1.081       .  S
C63          C64   1.544       .  S
C63         C291   1.503   1_554  S
C64          C68   1.587       .  S
C64         C270   1.541   1_455  S
C64         H274   1.106       .  S
C65         C270   1.367   1_455  D
C65        H1295   1.086   1_455  S
C66         C268   1.535   1_655  S
C66         C269   1.369   1_655  D
C66        C1314   1.505       .  S
C67          C68   1.364       .  D
C67          H72   1.078       .  S
H70         C268   1.106       .  S
H71         C473   1.085       .  S
C73          C74   1.514       .  S
C73          C79   1.534       .  S
C73          C77   1.536       .  S
C73         C136   1.524       .  S
C74          C75   1.362       .  D
C74          H81   1.082       .  S
C75          C76   1.589       .  S
C75          C92   1.510       .  S
C76          C80   1.541       .  S
C76          C78   1.545       .  S
C76          H82   1.107       .  S
C77          C78   1.365       .  D
C77          H83   1.085       .  S
C79          C80   1.369       .  D
C79         H492   1.078       .  S
C80         C464   1.493       .  S
H84        C1303   1.083   1_455  S
C85          C86   1.541       .  S
C85          C91   1.522       .  S
C85          C89   1.529       .  S
C85         C126   1.531       .  S
C86          C87   1.377       .  D
C86          H93   1.075       .  S
C87          C88   1.543       .  S
C87         C267   1.501       .  S
C88          C92   1.588       .  S
C88          C90   1.547       .  S
C88          H94   1.106       .  S
C89          C90   1.361       .  D
C89          H95   1.086       .  S
C90         C474   1.512       .  S
C91          C92   1.363       .  D
C91          H96   1.082       .  S
O97        Ni105   1.907       .  S
O97         C107   1.279       .  A
O98        Ni105   1.909       .  S
O98         C108   1.278       .  A
O99        Ni105   1.896       .  S
O99         C109   1.278       .  A
O100       Ni105   1.902       .  S
O100        C110   1.279       .  A
O101       Ni106   1.916       .  S
O101        C110   1.282       .  A
O102       Ni106   1.914       .  S
O102        C109   1.282       .  A
O103       Ni106   1.917       .  S
O103        C108   1.282       .  A
O104       Ni106   1.912       .  S
O104        C107   1.281       .  A
Ni105      Ni106   2.390       .  S
C107        C169   1.471       .  S
C108        C149   1.467       .  S
C109        C189   1.474       .  S
C110        C129   1.477       .  S
O111       Ni323   1.897   1_554  S
O111        C529   1.280   1_545  A
O112       Ni119   1.908       .  S
O112        C122   1.280       .  A
O113       Ni119   1.919       .  S
O113        C123   1.282   1_545  A
O114       Ni323   1.911   1_554  S
O114        C532   1.279       .  A
O115       Ni324   1.916   1_554  S
O115        C124   1.281       .  A
O116       Ni120   1.898       .  S
O116       C1347   1.279   1_445  A
O117       Ni120   1.912       .  S
O117       C1346   1.279   1_455  A
O118       Ni324   1.910   1_554  S
O118        C121   1.281   1_545  A
Ni119       O315   1.905       .  S
Ni119       O318   1.920       .  S
Ni119      Ni528   2.390       .  S
Ni120       O319   1.909       .  S
Ni120       O322   1.913       .  S
Ni120     Ni1343   2.390   1_455  S
C121       O1335   1.279   1_465  A
C121        C199   1.467       .  S
C122        O525   1.279       .  A
C122        C139   1.473       .  S
C123        O524   1.279   1_565  A
C123        C176   1.469       .  S
C124       O1338   1.280   1_455  A
C124        C159   1.479       .  S
C125        C126   1.409       .  A
C125        C130   1.390       .  A
C125        H132   1.083       .  S
C126        C127   1.420       .  A
C127        C128   1.400       .  A
C127        F134   1.352       .  S
C128        C129   1.401       .  A
C128        H133   1.084       .  S
C129        C130   1.405       .  A
C130        F131   1.356       .  S
C135        C136   1.408       .  A
C135        C140   1.392       .  A
C135        H142   1.084       .  S
C136        C137   1.414       .  A
C137        C138   1.391       .  A
C137        F552   1.353       .  S
C138        C139   1.403       .  A
C138        H551   1.084       .  S
C139        C140   1.406       .  A
C140        F141   1.358       .  S
H143       C1362   1.084       .  S
F144       C1361   1.357       .  S
C145        C146   1.408       .  A
C145        C150   1.395       .  A
C145        H152   1.079       .  S
C146        C147   1.420       .  A
C147        C148   1.398       .  A
C147        F154   1.357       .  S
C148        C149   1.396       .  A
C148        H153   1.083       .  S
C149        C150   1.402       .  A
C150        F151   1.354       .  S
C155        C160   1.394       .  A
C155        C564   1.409       .  A
C155        H162   1.080       .  S
C156        C157   1.412       .  A
C156       C1379   1.408   1_455  A
C157        C158   1.401       .  A
C157        F164   1.358       .  S
C158        C159   1.407       .  A
C158        H163   1.083       .  S
C159       C1384   1.406   1_455  A
C160        C567   1.402       .  A
C160        F161   1.356   1_554  S
C165        C166   1.414       .  A
C165        C170   1.395       .  A
C165        H172   1.075       .  S
C166        C167   1.411       .  A
C167        C168   1.395       .  A
C167        F174   1.358       .  S
C168        C169   1.404       .  A
C168        H173   1.083       .  S
C169        C170   1.401       .  A
C170        F171   1.357       .  S
C175        C176   1.397       .  A
C175        C180   1.399       .  A
C175        H182   1.083       .  S
C176        C585   1.402       .  A
C177       C1400   1.404   1_455  A
C177       C1402   1.388       .  A
C177        F184   1.358       .  S
C178        C179   1.408       .  A
C178        C585   1.396       .  A
C178        H591   1.079       .  S
C179        C180   1.419       .  A
C180        F181   1.357       .  S
H183       C1402   1.078       .  S
C185        C186   1.408       .  A
C185        C190   1.388       .  A
C185        H192   1.075       .  S
C186        C187   1.412       .  A
C187        C188   1.395       .  A
C187        F194   1.359       .  S
C188        C189   1.404       .  A
C188        H193   1.082       .  S
C189        C190   1.406       .  A
C190        F191   1.358       .  S
C195        C196   1.408       .  A
C195        C200   1.391       .  A
C195        H202   1.081       .  S
C196        C197   1.421       .  A
C197       C1422   1.398       .  A
C197       F1428   1.356   1_455  S
C198        C605   1.388       .  A
C198        C607   1.404       .  A
C198        H203   1.083       .  S
C199        C200   1.403       .  A
C199       C1422   1.398       .  A
C200        F201   1.357   1_554  S
F204        C605   1.354       .  S
C205        C206   1.536   1_455  S
C205        C211   1.523       .  S
C205        C209   1.530       .  S
C205        C400   1.525       .  S
C206        C207   1.373   1_655  D
C206       H1437   1.080       .  S
C207        C208   1.551       .  S
C207       C1455   1.502   1_455  S
C208        C212   1.583       .  S
C208        C210   1.540       .  S
C208        H214   1.107       .  S
C209        C210   1.363       .  D
C209        H215   1.085       .  S
C210        C234   1.502       .  S
C211        C212   1.361       .  D
C211        H216   1.080       .  S
C212        C219   1.506       .  S
H213        C614   1.079       .  S
C217        C218   1.516       .  S
C217        C223   1.542       .  S
C217        C221   1.531       .  S
C217        C390   1.528       .  S
C218        C219   1.363       .  D
C218        H225   1.083       .  S
C219        C220   1.588       .  S
C220        C224   1.546       .  S
C221       H1451   1.086       .  S
C222       C1470   1.505   1_454  S
C223        C224   1.374       .  D
C223        H228   1.080       .  S
H227        C629   1.087       .  S
C229        C230   1.531       .  S
C229        C235   1.520       .  S
C229        C233   1.533       .  S
C229        C383   1.521       .  S
C230        C231   1.373       .  D
C230        H645   1.080       .  S
C231        C232   1.545       .  S
C231        C615   1.499       .  S
C232        C236   1.580       .  S
C232        C234   1.536       .  S
C232        H238   1.107       .  S
C233        C234   1.367       .  D
C233        H239   1.085       .  S
C235        C236   1.356       .  D
C235        H240   1.079       .  S
C236        C243   1.496       .  S
H237       C1454   1.074   1_455  S
C241        C242   1.509       .  S
C241        C247   1.535       .  S
C241        C245   1.542       .  S
C241        C370   1.527       .  S
C242        C243   1.360       .  D
C242        H249   1.083       .  S
C243        C244   1.589       .  S
C244        C248   1.545       .  S
C244        C246   1.538       .  S
C244        H250   1.107       .  S
C245        C246   1.372       .  D
C245        H251   1.076       .  S
C246        C630   1.510   1_556  S
C247        C248   1.368       .  D
C247        H252   1.087       .  S
C253        C254   1.515       .  S
C253        C259   1.539   1_455  S
C253        C257   1.535       .  S
C253        C360   1.531       .  S
C254        C255   1.366       .  D
C254        H261   1.082       .  S
C255        C256   1.588       .  S
C255        C272   1.511       .  S
C256        C260   1.545   1_455  S
C256        C258   1.541       .  S
C256        H262   1.107       .  S
C257        C258   1.369       .  D
C257        H263   1.085       .  S
C258        C282   1.506       .  S
C259        C260   1.366       .  D
C259       H1488   1.081       .  S
C260       C1508   1.501       .  S
H264        C667   1.085       .  S
C265        C266   1.537       .  S
C265        C271   1.524       .  S
C265        C269   1.532       .  S
C265        C350   1.533       .  S
C266        C267   1.361       .  D
C266        H273   1.074       .  S
C267        C268   1.544       .  S
C268        C272   1.590       .  S
C269       H1499   1.086   1_455  S
C270       C1518   1.508   1_554  S
C271        C272   1.371       .  D
C271        H276   1.083       .  S
H275        C677   1.085       .  S
C277        C278   1.518       .  S
C277        C283   1.539       .  S
C277        C281   1.534       .  S
C277        C340   1.529       .  S
C278        C279   1.364       .  D
C278        H285   1.083       .  S
C279        C280   1.592       .  S
C279        C296   1.513       .  S
C280        C284   1.542       .  S
C280        C282   1.542       .  S
C280        H286   1.106       .  S
C281        C282   1.363       .  D
C281        H287   1.085       .  S
C283        C284   1.371       .  D
C283        H696   1.078       .  S
C284        C668   1.503       .  S
H288       C1507   1.083   1_455  S
C289        C290   1.540       .  S
C289        C295   1.515       .  S
C289        C293   1.532       .  S
C289        C330   1.529       .  S
C290        C291   1.374       .  D
C290        H297   1.074       .  S
C291        C292   1.547       .  S
C292        C296   1.592       .  S
C292        C294   1.546       .  S
C292        H298   1.107       .  S
C293        C294   1.362       .  D
C293        H299   1.085       .  S
C294        C678   1.510   1_556  S
C295        C296   1.361       .  D
C295        H300   1.082       .  S
O301       Ni309   1.909       .  S
O301        C311   1.279       .  A
O302       Ni309   1.908       .  S
O302        C312   1.282       .  A
O303       Ni309   1.906       .  S
O303        C313   1.280       .  A
O304       Ni309   1.903       .  S
O304        C314   1.280       .  A
O305       Ni310   1.907       .  S
O305        C314   1.281       .  A
O306       Ni310   1.907       .  S
O306        C313   1.281       .  A
O307       Ni310   1.911       .  S
O307        C312   1.280       .  A
O308       Ni310   1.908       .  S
O308        C311   1.281       .  A
Ni309      Ni310   2.390       .  S
C311        C373   1.466       .  S
C312        C353   1.473       .  S
C313        C393   1.477       .  S
C314        C333   1.476       .  S
O315        C733   1.279   1_545  A
O316       Ni323   1.905       .  S
O316        C326   1.279       .  A
O317       Ni323   1.910       .  S
O317        C327   1.281   1_545  A
O318        C736   1.281       .  A
O319        C328   1.280       .  A
O320       Ni324   1.912       .  S
O320       C1551   1.281   1_445  A
O321       Ni324   1.910       .  S
O321       C1550   1.279   1_455  A
O322        C325   1.282   1_545  A
Ni323      Ni732   2.392       .  S
Ni324     Ni1547   2.391   1_455  S
C325       O1539   1.279   1_465  A
C325        C403   1.470       .  S
C326        O729   1.280       .  A
C326        C343   1.473       .  S
C327        O728   1.278   1_565  A
C327        C380   1.459       .  S
C328       O1542   1.282   1_455  A
C328        C363   1.481       .  S
C329        C330   1.409       .  A
C329        C334   1.390       .  A
C329        H336   1.084       .  S
C330        C331   1.415       .  A
C331        C332   1.396       .  A
C331        F338   1.350       .  S
C332        C333   1.403       .  A
C332        H337   1.083       .  S
C333        C334   1.406       .  A
C334        F335   1.356       .  S
C339        C340   1.411       .  A
C339        C344   1.394       .  A
C339        H346   1.084       .  S
C340        C341   1.413       .  A
C341        C342   1.390       .  A
C341        F756   1.352       .  S
C342        C343   1.403       .  A
C342        H755   1.084       .  S
C343        C344   1.407       .  A
C344        F345   1.358       .  S
H347       C1566   1.083       .  S
F348       C1565   1.357       .  S
C349        C350   1.416       .  A
C349        C354   1.388       .  A
C349        H356   1.076       .  S
C350        C351   1.412       .  A
C351        C352   1.402       .  A
C351        F358   1.358   1_455  S
C352        C353   1.406       .  A
C352        H357   1.083       .  S
C353        C354   1.398       .  A
C354        F355   1.358       .  S
C359        C768   1.407       .  A
C359        C364   1.396       .  A
C359        H366   1.079       .  S
C360       C1583   1.409   1_455  A
C360        C361   1.413       .  A
C361        C362   1.400       .  A
C361        F368   1.358       .  S
C362        C363   1.408       .  A
C362        H367   1.084       .  S
C363       C1588   1.407   1_455  A
C364        C771   1.405       .  A
C364        F365   1.356       .  S
C369        C370   1.415       .  A
C369        C374   1.397       .  A
C369        H376   1.076       .  S
C370        C371   1.410       .  A
C371        C372   1.391       .  A
C371        F378   1.359       .  S
C372        C373   1.402       .  A
C372        H377   1.084       .  S
C373        C374   1.399       .  A
C374        F375   1.357       .  S
C379        C380   1.396       .  A
C379        C384   1.397       .  A
C379        H386   1.083       .  S
C380        C789   1.400       .  A
C381       C1604   1.402   1_455  A
C381       C1606   1.395   1_455  A
C381        F388   1.358       .  S
C382        C789   1.388       .  A
C382        C383   1.408       .  A
C382        H795   1.078       .  S
C383        C384   1.418       .  A
C384        F385   1.358       .  S
H387       C1606   1.073   1_455  S
C389        C390   1.410       .  A
C389        C394   1.397       .  A
C389        H396   1.078       .  S
C390        C391   1.413       .  A
C391        C392   1.391       .  A
C391        F398   1.359       .  S
C392        C393   1.403       .  A
C392        H397   1.084       .  S
C393        C394   1.409       .  A
C394        F395   1.358       .  S
C399        C400   1.409       .  A
C399        C404   1.391       .  A
C399        H406   1.081       .  S
C400        C401   1.419   1_455  A
C401       C1626   1.399       .  A
C401       F1632   1.356       .  S
C402        C809   1.397       .  A
C402        C811   1.407       .  A
C402        H407   1.083       .  S
C403       C1626   1.399   1_455  A
C403        C404   1.403       .  A
C404        F405   1.356       .  S
F408        C809   1.354       .  S
C409        C410   1.540       .  S
C409        C415   1.511       .  S
C409        C413   1.528       .  S
C409        C604   1.523       .  S
C410        C411   1.371       .  D
C411        C412   1.548       .  S
C412        C416   1.593       .  S
C412        C414   1.545       .  S
C412        H418   1.108       .  S
C413        C414   1.363       .  D
C413        H419   1.085       .  S
C414        C438   1.501       .  S
C415        C416   1.361       .  D
C415        H420   1.082       .  S
C416        C423   1.514       .  S
H417        C818   1.080       .  S
C421        C422   1.523       .  S
C421        C427   1.528       .  S
C421        C425   1.531       .  S
C421        C594   1.527       .  S
C422        C423   1.367       .  D
C422        H429   1.083       .  S
C423        C424   1.599       .  S
C424        C428   1.541       .  S
C424        C630   1.546       .  S
C424        H634   1.106       .  S
C425        C630   1.362       .  D
C426        C628   1.536       .  S
C426        C629   1.364       .  D
C427        C428   1.371       .  D
C427        H432   1.086       .  S
C428        C656   1.508   1_554  S
H430        C628   1.107       .  S
H431        C833   1.085       .  S
C433        C434   1.535       .  S
C433        C439   1.517       .  S
C433        C437   1.537       .  S
C433        C587   1.533       .  S
C434        C435   1.365       .  D
C434        H849   1.078       .  S
C435        C436   1.542       .  S
C435        C819   1.497       .  S
C436        C440   1.583       .  S
C436        C438   1.534       .  S
C436        H442   1.107       .  S
C437        C438   1.370       .  D
C437        H443   1.085       .  S
C439        C440   1.368       .  D
C439        H444   1.082       .  S
C440        C447   1.508       .  S
C445        C446   1.520       .  S
C445        C451   1.533       .  S
C445        C449   1.538       .  S
C445        C574   1.533       .  S
C446        C447   1.368       .  D
C446        H453   1.083       .  S
C447        C448   1.582       .  S
C448        C452   1.540       .  S
C448        C450   1.534       .  S
C448        H454   1.106       .  S
C449        C450   1.368       .  D
C449        H455   1.078       .  S
C450        C834   1.498       .  S
C451        C452   1.367       .  D
C451        H456   1.086       .  S
C452        C632   1.498       .  S
C457        C458   1.522       .  S
C457        C463   1.535       .  S
C457        C461   1.531       .  S
C457        C564   1.529       .  S
C458        C459   1.364       .  D
C458        H465   1.079       .  S
C459        C460   1.580       .  S
C459        C476   1.501       .  S
C460        C464   1.539       .  S
C460        C462   1.542       .  S
C460        H466   1.106       .  S
C461        C462   1.369       .  D
C461        H467   1.085       .  S
C462        C486   1.512       .  S
C463        C464   1.373       .  D
H468        C871   1.080       .  S
C469        C470   1.531       .  S
C469        C475   1.522       .  S
C469        C473   1.532       .  S
C469        C554   1.525       .  S
C470        C471   1.368       .  D
C470        H477   1.083       .  S
C471        C472   1.538       .  S
C471        C699   1.492   1_554  S
C472        C476   1.583       .  S
C472        C678   1.539       .  S
C472        H682   1.106       .  S
C473        C678   1.370       .  D
C474        C676   1.538       .  S
C474        C677   1.369       .  D
C475        C476   1.366       .  D
C475        H480   1.077       .  S
H478        C676   1.106       .  S
H479        C881   1.086       .  S
C481        C482   1.521       .  S
C481        C487   1.535       .  S
C481        C485   1.529       .  S
C481        C544   1.521       .  S
C482        C483   1.363       .  D
C482        H489   1.081       .  S
C483        C484   1.589       .  S
C483        C500   1.508       .  S
C484        C488   1.545       .  S
C484        C486   1.547       .  S
C484        H490   1.107       .  S
C485        C486   1.362       .  D
C485        H491   1.085       .  S
C487        C488   1.370       .  D
C487        H900   1.081       .  S
C488        C872   1.495       .  S
C493        C494   1.537       .  S
C493        C499   1.524       .  S
C493        C497   1.529       .  S
C493        C534   1.526       .  S
C494        C495   1.376       .  D
C494        H501   1.077       .  S
C495        C496   1.538       .  S
C495        C675   1.493       .  S
C496        C500   1.585       .  S
C496        C498   1.544       .  S
C496        H502   1.106       .  S
C497        C498   1.362       .  D
C497        H503   1.086       .  S
C498        C882   1.507       .  S
C499        C500   1.361       .  D
C499        H504   1.082       .  S
O505       Ni513   1.916       .  S
O505        C515   1.282       .  A
O506       Ni513   1.920       .  S
O506        C516   1.282       .  A
O507       Ni513   1.901       .  S
O507        C517   1.277       .  A
O508       Ni513   1.899       .  S
O508        C518   1.279       .  A
O509       Ni514   1.917       .  S
O509        C518   1.282       .  A
O510       Ni514   1.916       .  S
O510        C517   1.281       .  A
O511       Ni514   1.903       .  S
O511        C516   1.277       .  A
O512       Ni514   1.904       .  S
O512        C515   1.279       .  A
Ni513      Ni514   2.394       .  S
C515        C577   1.471       .  S
C516        C557   1.461       .  S
C517        C597   1.458       .  S
C518        C537   1.472       .  S
O519       Ni731   1.916   1_554  S
O519        C937   1.280   1_545  A
O520       Ni527   1.906       .  S
O520        C530   1.280       .  A
O521       Ni527   1.911       .  S
O521        C531   1.281   1_545  A
O522       Ni731   1.902   1_554  S
O522        C940   1.280       .  A
O523       Ni732   1.912   1_554  S
O523        C532   1.281       .  A
O524       Ni528   1.912       .  S
O525       Ni528   1.897       .  S
O526       Ni732   1.910   1_554  S
O526        C529   1.280   1_545  A
Ni527       O723   1.907       .  S
Ni527       O726   1.908       .  S
Ni527      Ni936   2.390       .  S
Ni528       O727   1.912       .  S
Ni528       O730   1.905       .  S
C529        C607   1.474       .  S
C530        O933   1.280       .  A
C530        C547   1.466       .  S
C531        O932   1.280   1_565  A
C531        C584   1.479       .  S
C532        C567   1.467       .  S
C533        C534   1.406       .  A
C533        C538   1.386       .  A
C533        H540   1.083       .  S
C534        C535   1.421       .  A
C535        C536   1.401       .  A
C535        F542   1.353       .  S
C536        C537   1.399       .  A
C536        H541   1.083       .  S
C537        C538   1.404       .  A
C538        F539   1.355       .  S
C543        C544   1.407       .  A
C543        C548   1.391       .  A
C543        H550   1.082       .  S
C544        C545   1.420       .  A
C545        C546   1.397       .  A
C545        F960   1.356       .  S
C546        C547   1.396       .  A
C546        H959   1.084       .  S
C547        C548   1.404       .  A
C548        F549   1.357       .  S
C553        C554   1.405       .  A
C553        C558   1.394       .  A
C553        H560   1.078       .  S
C554        C555   1.419       .  A
C555        C556   1.395       .  A
C555        F562   1.354       .  S
C556        C557   1.391       .  A
C556        H561   1.083       .  S
C557        C558   1.405       .  A
C558        F559   1.354       .  S
C563        C972   1.409       .  A
C563        C568   1.391       .  A
C563        H570   1.078       .  S
C564        C565   1.419       .  A
C565        C566   1.398       .  A
C565        F572   1.357       .  S
C566        C567   1.397       .  A
C566        H571   1.083       .  S
C568        C975   1.407       .  A
C568        F569   1.358       .  S
C573        C574   1.416       .  A
C573        C578   1.396       .  A
C573        H580   1.076       .  S
C574        C575   1.411       .  A
C575        C576   1.394       .  A
C575        F582   1.358       .  S
C576        C577   1.403       .  A
C576        H581   1.084       .  S
C577        C578   1.399       .  A
C578        F579   1.355       .  S
C583        C584   1.407       .  A
C583        C588   1.398       .  A
C583        H590   1.083       .  S
C584        C993   1.406       .  A
C585        F592   1.354       .  S
C586        C993   1.392       .  A
C586        C587   1.412       .  A
C586        H999   1.077       .  S
C587        C588   1.410       .  A
C588        F589   1.358       .  S
C593        C594   1.404       .  A
C593        C598   1.394       .  A
C593        H600   1.082       .  S
C594        C595   1.426       .  A
C595        C596   1.394       .  A
C595        F602   1.356       .  S
C596        C597   1.390       .  A
C596        H601   1.083       .  S
C597        C598   1.403       .  A
C598        F599   1.355       .  S
C603        C604   1.412       .  A
C603        C608   1.395       .  A
C603        H610   1.084       .  S
C604        C605   1.409       .  A
C606       C1013   1.401       .  A
C606       C1015   1.398       .  A
C606        H611   1.083       .  S
C607        C608   1.407       .  A
C608        F609   1.358       .  S
F612       C1013   1.357       .  S
C613        C614   1.539       .  S
C613        C619   1.517       .  S
C613        C617   1.536       .  S
C613        C808   1.526       .  S
C614        C615   1.373       .  D
C615        C616   1.544       .  S
C616        C620   1.582       .  S
C616        C618   1.533       .  S
C616        H622   1.106       .  S
C617        C618   1.361       .  D
C617        H623   1.084       .  S
C618        C642   1.499       .  S
C619        C620   1.363       .  D
C619        H624   1.083       .  S
C620        C627   1.502       .  S
H621       C1022   1.080       .  S
C625        C626   1.518       .  S
C625        C631   1.536       .  S
C625        C629   1.529       .  S
C625        C798   1.524       .  S
C626        C627   1.362       .  D
C626        H633   1.081       .  S
C627        C628   1.582       .  S
C628        C632   1.546       .  S
C631        C632   1.373       .  D
C631        H636   1.078       .  S
H635       C1037   1.086       .  S
C637        C638   1.539       .  S
C637        C643   1.518       .  S
C637        C641   1.531       .  S
C637        C791   1.527       .  S
C638        C639   1.371       .  D
C638       H1053   1.080       .  S
C639        C640   1.545       .  S
C639       C1023   1.505       .  S
C640        C644   1.588       .  S
C640        C642   1.536       .  S
C640        H646   1.106       .  S
C641        C642   1.365       .  D
C641        H647   1.084       .  S
C643        C644   1.363       .  D
C643        H648   1.083       .  S
C644        C651   1.511       .  S
C649        C650   1.509       .  S
C649        C655   1.529       .  S
C649        C653   1.540       .  S
C649        C778   1.526       .  S
C650        C651   1.362       .  D
C650        H657   1.082       .  S
C651        C652   1.594       .  S
C652        C656   1.549       .  S
C652        C654   1.541       .  S
C652        H658   1.108       .  S
C653        C654   1.372       .  D
C653        H659   1.078       .  S
C654       C1038   1.505   1_556  S
C655        C656   1.364       .  D
C655        H660   1.084       .  S
C661        C662   1.525       .  S
C661        C667   1.536       .  S
C661        C665   1.529       .  S
C661        C768   1.530       .  S
C662        C663   1.365       .  D
C662        H669   1.078       .  S
C663        C664   1.588       .  S
C663        C680   1.512       .  S
C664        C668   1.546       .  S
C664        C666   1.542       .  S
C664        H670   1.107       .  S
C665        C666   1.367       .  D
C665        H671   1.086       .  S
C666        C690   1.509       .  S
C667        C668   1.373       .  D
H672       C1075   1.078       .  S
C673        C674   1.535       .  S
C673        C679   1.523       .  S
C673        C677   1.531       .  S
C673        C758   1.527       .  S
C674        C675   1.366       .  D
C674        H681   1.083       .  S
C675        C676   1.544       .  S
C676        C680   1.589       .  S
C679        C680   1.366       .  D
C679        H684   1.081       .  S
H683       C1085   1.085       .  S
C685        C686   1.517       .  S
C685        C691   1.536       .  S
C685        C689   1.528       .  S
C685        C748   1.526       .  S
C686        C687   1.360       .  D
C686        H693   1.079       .  S
C687        C688   1.588       .  S
C687        C704   1.503       .  S
C688        C692   1.546       .  S
C688        C690   1.544       .  S
C688        H694   1.107       .  S
C689        C690   1.364       .  D
C689        H695   1.085       .  S
C691        C692   1.376       .  D
C691       H1104   1.078       .  S
C692       C1076   1.504       .  S
C697        C698   1.536       .  S
C697        C703   1.517       .  S
C697        C701   1.535       .  S
C697        C738   1.526       .  S
C698        C699   1.372       .  D
C698        H705   1.072       .  S
C699        C700   1.538       .  S
C700        C704   1.587       .  S
C700        C702   1.540       .  S
C700        H706   1.106       .  S
C701        C702   1.364       .  D
C701        H707   1.085       .  S
C702       C1086   1.509   1_556  S
C703        C704   1.360       .  D
C703        H708   1.083       .  S
O709       Ni717   1.912       .  S
O709        C719   1.280       .  A
O710       Ni717   1.909       .  S
O710        C720   1.280       .  A
O711       Ni717   1.900       .  S
O711        C721   1.278       .  A
O712       Ni717   1.901       .  S
O712        C722   1.279       .  A
O713       Ni718   1.906       .  S
O713        C722   1.280       .  A
O714       Ni718   1.909       .  S
O714        C721   1.281       .  A
O715       Ni718   1.912       .  S
O715        C720   1.280       .  A
O716       Ni718   1.907       .  S
O716        C719   1.281       .  A
Ni717      Ni718   2.391       .  S
C719        C781   1.471       .  S
C720        C761   1.467       .  S
C721        C801   1.467       .  S
C722        C741   1.473       .  S
O723       C1141   1.279   1_545  A
O724       Ni731   1.914       .  S
O724        C734   1.282       .  A
O725       Ni731   1.910       .  S
O725        C735   1.281   1_545  A
O726       C1144   1.281       .  A
O727        C736   1.280       .  A
O728       Ni732   1.907       .  S
O729       Ni732   1.898       .  S
O730        C733   1.281   1_545  A
Ni731     Ni1140   2.390       .  S
C733        C811   1.475       .  S
C734       O1137   1.278       .  A
C734        C751   1.468       .  S
C735       O1136   1.279   1_565  A
C735        C788   1.477       .  S
C736        C771   1.469       .  S
C737        C738   1.408       .  A
C737        C742   1.388       .  A
C737        H744   1.084       .  S
C738        C739   1.418       .  A
C739        C740   1.395       .  A
C739        F746   1.349       .  S
C740        C741   1.401       .  A
C740        H745   1.083       .  S
C741        C742   1.405       .  A
C742        F743   1.357       .  S
C747        C748   1.409       .  A
C747        C752   1.391       .  A
C747        H754   1.080       .  S
C748        C749   1.419       .  A
C749        C750   1.399       .  A
C749       F1164   1.356       .  S
C750        C751   1.397       .  A
C750       H1163   1.083       .  S
C751        C752   1.403       .  A
C752        F753   1.356       .  S
C757        C758   1.415       .  A
C757        C762   1.393       .  A
C757        H764   1.080       .  S
C758        C759   1.412       .  A
C759        C760   1.398       .  A
C759        F766   1.356       .  S
C760        C761   1.402       .  A
C760        H765   1.081       .  S
C761        C762   1.397       .  A
C762        F763   1.358       .  S
C767       C1176   1.410       .  A
C767        C772   1.393       .  A
C767        H774   1.078       .  S
C768        C769   1.419       .  A
C769        C770   1.399       .  A
C769        F776   1.357       .  S
C770        C771   1.396       .  A
C770        H775   1.083       .  S
C772       C1179   1.408       .  A
C772        F773   1.358       .  S
C777        C778   1.413       .  A
C777        C782   1.398       .  A
C777        H784   1.076       .  S
C778        C779   1.410       .  A
C779        C780   1.390       .  A
C779        F786   1.359       .  S
C780        C781   1.402       .  A
C780        H785   1.080       .  S
C781        C782   1.401       .  A
C782        F783   1.356       .  S
C787        C788   1.404       .  A
C787        C792   1.394       .  A
C787        H794   1.083       .  S
C788       C1197   1.409       .  A
C789        F796   1.356       .  S
C790       C1197   1.392       .  A
C790        C791   1.409       .  A
C790       H1203   1.078       .  S
C791        C792   1.413       .  A
C792        F793   1.358       .  S
C797        C798   1.410       .  A
C797        C802   1.390       .  A
C797        H804   1.082       .  S
C798        C799   1.418       .  A
C799        C800   1.396       .  A
C799        F806   1.354       .  S
C800        C801   1.399       .  A
C800        H805   1.084       .  S
C801        C802   1.403       .  A
C802        F803   1.357       .  S
C807        C808   1.409       .  A
C807        C812   1.389       .  A
C807        H814   1.083       .  S
C808        C809   1.413       .  A
C810       C1217   1.397       .  A
C810       C1219   1.397       .  A
C810        H815   1.084       .  S
C811        C812   1.405       .  A
C812        F813   1.358       .  S
F816       C1217   1.356       .  S
C817        C818   1.538       .  S
C817        C823   1.521       .  S
C817        C821   1.527       .  S
C817       C1012   1.527       .  S
C818        C819   1.376       .  D
C819        C820   1.539       .  S
C820        C824   1.580       .  S
C820        C822   1.540       .  S
C820        H826   1.106       .  S
C821        C822   1.366       .  D
C821        H827   1.086       .  S
C822        C846   1.505       .  S
C823        C824   1.362       .  D
C823        H828   1.080       .  S
C824        C831   1.499       .  S
H825       C1226   1.080       .  S
C829        C830   1.517       .  S
C829        C835   1.542       .  S
C829        C833   1.527       .  S
C829       C1002   1.532       .  S
C830        C831   1.364       .  D
C830        H837   1.081       .  S
C831        C832   1.583       .  S
C832        C836   1.532       .  S
C832       C1038   1.542       .  S
C832       H1042   1.107   1_554  S
C833       C1038   1.367       .  D
C834       C1036   1.537       .  S
C834       C1037   1.360       .  D
C835        C836   1.374       .  D
C835        H840   1.075       .  S
C836       C1064   1.498   1_554  S
H838       C1036   1.106       .  S
H839       C1241   1.079       .  S
C841        C842   1.534       .  S
C841        C847   1.523       .  S
C841        C845   1.526       .  S
C841        C995   1.527       .  S
C842        C843   1.372       .  D
C842       H1257   1.084       .  S
C843        C844   1.550       .  S
C843       C1227   1.505       .  S
C844        C848   1.591       .  S
C844        C846   1.544       .  S
C844        H850   1.108       .  S
C845        C846   1.365       .  D
C845        H851   1.086       .  S
C847        C848   1.364       .  D
C847        H852   1.076       .  S
C848        C855   1.516       .  S
C853        C854   1.523       .  S
C853        C859   1.530       .  S
C853        C857   1.543       .  S
C853        C982   1.536       .  S
C854        C855   1.367       .  D
C854        H861   1.083       .  S
C855        C856   1.591       .  S
C856        C860   1.541       .  S
C856        C858   1.536       .  S
C856        H862   1.106       .  S
C857        C858   1.372       .  D
C857        H863   1.075       .  S
C858       C1242   1.509       .  S
C859        C860   1.367       .  D
C859        H864   1.085       .  S
C860       C1040   1.503       .  S
C865        C866   1.513       .  S
C865        C871   1.538       .  S
C865        C869   1.537       .  S
C865        C972   1.525       .  S
C866        C867   1.362       .  D
C866        H873   1.083       .  S
C867        C868   1.584       .  S
C867        C884   1.501       .  S
C868        C872   1.538       .  S
C868        C870   1.539       .  S
C868        H874   1.106       .  S
C869        C870   1.370       .  D
C869        H875   1.086       .  S
C870        C894   1.506       .  S
C871        C872   1.369       .  D
H876       C1279   1.086       .  S
C877        C878   1.535       .  S
C877        C883   1.520       .  S
C877        C881   1.530       .  S
C877        C962   1.526       .  S
C878        C879   1.372       .  D
C878        H885   1.085       .  S
C879        C880   1.542       .  S
C879       C1107   1.496   1_554  S
C880        C884   1.583       .  S
C880       C1086   1.543       .  S
C880       H1090   1.107       .  S
C881       C1086   1.366       .  D
C882       C1084   1.539       .  S
C882       C1085   1.371       .  D
C883        C884   1.362       .  D
C883        H888   1.075       .  S
H886       C1084   1.106       .  S
H887       C1289   1.086       .  S
C889        C890   1.511       .  S
C889        C895   1.535       .  S
C889        C893   1.535       .  S
C889        C952   1.517       .  S
C890        C891   1.360       .  D
C890        H897   1.083       .  S
C891        C892   1.589       .  S
C891        C908   1.504       .  S
C892        C896   1.539       .  S
C892        C894   1.544       .  S
C892        H898   1.106       .  S
C893        C894   1.360       .  D
C893        H899   1.085       .  S
C895        C896   1.371       .  D
C895       H1308   1.081       .  S
C896       C1280   1.494       .  S
C901        C902   1.541       .  S
C901        C907   1.518       .  S
C901        C905   1.525       .  S
C901        C942   1.525       .  S
C902        C903   1.380       .  D
C902        H909   1.082       .  S
C903        C904   1.545       .  S
C903       C1083   1.501       .  S
C904        C908   1.587       .  S
C904        C906   1.550       .  S
C904        H910   1.107       .  S
C905        C906   1.361       .  D
C905        H911   1.083       .  S
C906       C1290   1.514       .  S
C907        C908   1.359       .  D
C907        H912   1.080       .  S
O913       Ni921   1.916       .  S
O913        C923   1.280       .  A
O914       Ni921   1.911       .  S
O914        C924   1.279       .  A
O915       Ni921   1.907       .  S
O915        C925   1.280       .  A
O916       Ni921   1.908       .  S
O916        C926   1.280       .  A
O917       Ni922   1.914       .  S
O917        C926   1.281       .  A
O918       Ni922   1.918       .  S
O918        C925   1.282       .  A
O919       Ni922   1.914       .  S
O919        C924   1.281       .  A
O920       Ni922   1.906       .  S
O920        C923   1.279       .  A
Ni921      Ni922   2.391       .  S
C923        C985   1.470       .  S
C924        C965   1.463       .  S
C925       C1005   1.476       .  S
C926        C945   1.472       .  S
O927      Ni1139   1.888   1_554  S
O927       C1345   1.277   1_545  A
O928       Ni935   1.898       .  S
O928        C938   1.279       .  A
O929       Ni935   1.916       .  S
O929        C939   1.281   1_545  A
O930      Ni1139   1.913   1_554  S
O930       C1348   1.280       .  A
O931      Ni1140   1.907   1_554  S
O931        C940   1.281       .  A
O932       Ni936   1.905       .  S
O933       Ni936   1.912       .  S
O934      Ni1140   1.908   1_554  S
O934        C937   1.280   1_545  A
Ni935      O1131   1.892       .  S
Ni935      O1134   1.919       .  S
Ni935     Ni1344   2.392       .  S
Ni936      O1135   1.914       .  S
Ni936      O1138   1.914       .  S
C937       C1015   1.468       .  S
C938       O1341   1.278       .  A
C938        C955   1.465       .  S
C939       O1340   1.279   1_565  A
C939        C992   1.466       .  S
C940        C975   1.475       .  S
C941        C942   1.410       .  A
C941        C946   1.391       .  A
C941        H948   1.081       .  S
C942        C943   1.418       .  A
C943        C944   1.399       .  A
C943        F950   1.356       .  S
C944        C945   1.400       .  A
C944        H949   1.084       .  S
C945        C946   1.405       .  A
C946        F947   1.358       .  S
C951        C952   1.408       .  A
C951        C956   1.386       .  A
C951        H958   1.084       .  S
C952        C953   1.410       .  A
C953        C954   1.391       .  A
C953       F1368   1.355       .  S
C954        C955   1.405       .  A
C954       H1367   1.083       .  S
C955        C956   1.403       .  A
C956        F957   1.357       .  S
C961        C962   1.408       .  A
C961        C966   1.395       .  A
C961        H968   1.078       .  S
C962        C963   1.417       .  A
C963        C964   1.395       .  A
C963        F970   1.356       .  S
C964        C965   1.394       .  A
C964        H969   1.084       .  S
C965        C966   1.403       .  A
C966        F967   1.356       .  S
C971       C1380   1.406       .  A
C971        C976   1.394       .  A
C971        H978   1.079       .  S
C972        C973   1.410       .  A
C973        C974   1.395       .  A
C973        F980   1.358       .  S
C974        C975   1.405       .  A
C974        H979   1.084       .  S
C976       C1383   1.402       .  A
C976        F977   1.352   1_554  S
C981        C982   1.418       .  A
C981        C986   1.400       .  A
C981        H988   1.073       .  S
C982        C983   1.412       .  A
C983        C984   1.395       .  A
C983        F990   1.358       .  S
C984        C985   1.402       .  A
C984        H989   1.083       .  S
C985        C986   1.398       .  A
C986        F987   1.357       .  S
C991        C992   1.396       .  A
C991        C996   1.399       .  A
C991        H998   1.084       .  S
C992       C1401   1.402       .  A
C993       F1000   1.358       .  S
C994       C1401   1.393       .  A
C994        C995   1.406       .  A
C994       H1407   1.079       .  S
C995        C996   1.420       .  A
C996        F997   1.357       .  S
C1001      C1002   1.413       .  A
C1001      C1006   1.395       .  A
C1001      H1008   1.077       .  S
C1002      C1003   1.414       .  A
C1003      C1004   1.399       .  A
C1003      F1010   1.357       .  S
C1004      C1005   1.403       .  A
C1004      H1009   1.081       .  S
C1005      C1006   1.402       .  A
C1006      F1007   1.358       .  S
C1011      C1012   1.408       .  A
C1011      C1016   1.391       .  A
C1011      H1018   1.080       .  S
C1012      C1013   1.420       .  A
C1014      C1421   1.389       .  A
C1014      C1423   1.406       .  A
C1014      H1019   1.084       .  S
C1015      C1016   1.403       .  A
C1016      F1017   1.357   1_554  S
F1020      C1421   1.354       .  S
C1021      C1022   1.539       .  S
C1021      C1027   1.521       .  S
C1021      C1025   1.528       .  S
C1021      C1216   1.526       .  S
C1022      C1023   1.375       .  D
C1023      C1024   1.548       .  S
C1024      C1028   1.586       .  S
C1024      C1026   1.542       .  S
C1024      H1030   1.107       .  S
C1025      C1026   1.361       .  D
C1025      H1031   1.085       .  S
C1026      C1050   1.503       .  S
C1027      C1028   1.362       .  D
C1027      H1032   1.081       .  S
C1028      C1035   1.508       .  S
H1029      C1430   1.077       .  S
C1033      C1034   1.517       .  S
C1033      C1039   1.543       .  S
C1033      C1037   1.529       .  S
C1033      C1206   1.523       .  S
C1034      C1035   1.363       .  D
C1034      H1041   1.083       .  S
C1035      C1036   1.587       .  S
C1036      C1040   1.541       .  S
C1039      C1040   1.375       .  D
C1039      H1044   1.078       .  S
H1043      C1445   1.087       .  S
C1045      C1046   1.537       .  S
C1045      C1051   1.530       .  S
C1045      C1049   1.532       .  S
C1045      C1199   1.534       .  S
C1046      C1047   1.374       .  D
C1046      H1461   1.084       .  S
C1047      C1048   1.544       .  S
C1047      C1431   1.503       .  S
C1048      C1052   1.582       .  S
C1048      C1050   1.534       .  S
C1048      H1054   1.106       .  S
C1049      C1050   1.369       .  D
C1049      H1055   1.085       .  S
C1051      C1052   1.365       .  D
C1051      H1056   1.079       .  S
C1052      C1059   1.509       .  S
C1057      C1058   1.512       .  S
C1057      C1063   1.524       .  S
C1057      C1061   1.546       .  S
C1057      C1186   1.528       .  S
C1058      C1059   1.364       .  D
C1058      H1065   1.081       .  S
C1059      C1060   1.590       .  S
C1060      C1064   1.547       .  S
C1060      C1062   1.538       .  S
C1060      H1066   1.107       .  S
C1061      C1062   1.374       .  D
C1061      H1067   1.078       .  S
C1062      C1446   1.510   1_556  S
C1063      C1064   1.362       .  D
C1063      H1068   1.085       .  S
C1069      C1070   1.513       .  S
C1069      C1075   1.538       .  S
C1069      C1073   1.537       .  S
C1069      C1176   1.531       .  S
C1070      C1071   1.363       .  D
C1070      H1077   1.083       .  S
C1071      C1072   1.592       .  S
C1071      C1088   1.510       .  S
C1072      C1076   1.547       .  S
C1072      C1074   1.541       .  S
C1072      H1078   1.107       .  S
C1073      C1074   1.370       .  D
C1073      H1079   1.085       .  S
C1074      C1098   1.512       .  S
C1075      C1076   1.369       .  D
H1080      C1483   1.085       .  S
C1081      C1082   1.535       .  S
C1081      C1087   1.515       .  S
C1081      C1085   1.538       .  S
C1081      C1166   1.527       .  S
C1082      C1083   1.363       .  D
C1082      H1089   1.072       .  S
C1083      C1084   1.544       .  S
C1084      C1088   1.591       .  S
C1087      C1088   1.363       .  D
C1087      H1092   1.083       .  S
H1091      C1493   1.083       .  S
C1093      C1094   1.511       .  S
C1093      C1099   1.537       .  S
C1093      C1097   1.535       .  S
C1093      C1156   1.524       .  S
C1094      C1095   1.361       .  D
C1094      H1101   1.082       .  S
C1095      C1096   1.593       .  S
C1095      C1112   1.511       .  S
C1096      C1100   1.543       .  S
C1096      C1098   1.545       .  S
C1096      H1102   1.107       .  S
C1097      C1098   1.365       .  D
C1097      H1103   1.083       .  S
C1099      C1100   1.371       .  D
C1099      H1512   1.084       .  S
C1100      C1484   1.500       .  S
C1105      C1106   1.537       .  S
C1105      C1111   1.519       .  S
C1105      C1109   1.534       .  S
C1105      C1146   1.528       .  S
C1106      C1107   1.372       .  D
C1106      H1113   1.072       .  S
C1107      C1108   1.543       .  S
C1108      C1112   1.591       .  S
C1108      C1110   1.545       .  S
C1108      H1114   1.107       .  S
C1109      C1110   1.362       .  D
C1109      H1115   1.084       .  S
C1110      C1494   1.513   1_556  S
C1111      C1112   1.361       .  D
C1111      H1116   1.082       .  S
O1117     Ni1125   1.902       .  S
O1117      C1127   1.278       .  A
O1118     Ni1125   1.897       .  S
O1118      C1128   1.280       .  A
O1119     Ni1125   1.898       .  S
O1119      C1129   1.278       .  A
O1120     Ni1125   1.899       .  S
O1120      C1130   1.279       .  A
O1121     Ni1126   1.910       .  S
O1121      C1130   1.281       .  A
O1122     Ni1126   1.903       .  S
O1122      C1129   1.281       .  A
O1123     Ni1126   1.908       .  S
O1123      C1128   1.279       .  A
O1124     Ni1126   1.911       .  S
O1124      C1127   1.281       .  A
Ni1125    Ni1126   2.390       .  S
C1127      C1189   1.470       .  S
C1128      C1169   1.470       .  S
C1129      C1209   1.471       .  S
C1130      C1149   1.473       .  S
O1131      C1549   1.277   1_545  A
O1132     Ni1139   1.898       .  S
O1132      C1142   1.278       .  A
O1133     Ni1139   1.916       .  S
O1133      C1143   1.282   1_545  A
O1134      C1552   1.281       .  A
O1135      C1144   1.282       .  A
O1136     Ni1140   1.903       .  S
O1137     Ni1140   1.908       .  S
O1138      C1141   1.282   1_545  A
Ni1139    Ni1548   2.390       .  S
C1141      C1219   1.469       .  S
C1142      O1545   1.281       .  A
C1142      C1159   1.471       .  S
C1143      O1544   1.281   1_565  A
C1143      C1196   1.475       .  S
C1144      C1179   1.482       .  S
C1145      C1146   1.407       .  A
C1145      C1150   1.388       .  A
C1145      H1152   1.084       .  S
C1146      C1147   1.418       .  A
C1147      C1148   1.397       .  A
C1147      F1154   1.349       .  S
C1148      C1149   1.401       .  A
C1148      H1153   1.084       .  S
C1149      C1150   1.406       .  A
C1150      F1151   1.356       .  S
C1155      C1156   1.411       .  A
C1155      C1160   1.392       .  A
C1155      H1162   1.083       .  S
C1156      C1157   1.410       .  A
C1157      C1158   1.393       .  A
C1157      F1572   1.357       .  S
C1158      C1159   1.403       .  A
C1158      H1571   1.083       .  S
C1159      C1160   1.405       .  A
C1160      F1161   1.358       .  S
C1165      C1166   1.411       .  A
C1165      C1170   1.383       .  A
C1165      H1172   1.068       .  S
C1166      C1167   1.411       .  A
C1167      C1168   1.399       .  A
C1167      F1174   1.358       .  S
C1168      C1169   1.406       .  A
C1168      H1173   1.083       .  S
C1169      C1170   1.399       .  A
C1170      F1171   1.357       .  S
C1175      C1584   1.406       .  A
C1175      C1180   1.392       .  A
C1175      H1182   1.078       .  S
C1176      C1177   1.412       .  A
C1177      C1178   1.398       .  A
C1177      F1184   1.358       .  S
C1178      C1179   1.406       .  A
C1178      H1183   1.084       .  S
C1180      C1587   1.401       .  A
C1180      F1181   1.355       .  S
C1185      C1186   1.410       .  A
C1185      C1190   1.394       .  A
C1185      H1192   1.077       .  S
C1186      C1187   1.414       .  A
C1187      C1188   1.394       .  A
C1187      F1194   1.359       .  S
C1188      C1189   1.403       .  A
C1188      H1193   1.084       .  S
C1189      C1190   1.401       .  A
C1190      F1191   1.356       .  S
C1195      C1196   1.399       .  A
C1195      C1200   1.403       .  A
C1195      H1202   1.083       .  S
C1196      C1605   1.404       .  A
C1197      F1204   1.358       .  S
C1198      C1605   1.395       .  A
C1198      C1199   1.407       .  A
C1198      H1611   1.078       .  S
C1199      C1200   1.421       .  A
C1200      F1201   1.358       .  S
C1205      C1206   1.409       .  A
C1205      C1210   1.394       .  A
C1205      H1212   1.076       .  S
C1206      C1207   1.413       .  A
C1207      C1208   1.389       .  A
C1207      F1214   1.359       .  S
C1208      C1209   1.402       .  A
C1208      H1213   1.084       .  S
C1209      C1210   1.407       .  A
C1210      F1211   1.358       .  S
C1215      C1216   1.410       .  A
C1215      C1220   1.394       .  A
C1215      H1222   1.081       .  S
C1216      C1217   1.419       .  A
C1218      C1625   1.391       .  A
C1218      C1627   1.405       .  A
C1218      H1223   1.084       .  S
C1219      C1220   1.404       .  A
C1220      F1221   1.357       .  S
F1224      C1625   1.352       .  S
C1225      C1226   1.544       .  S
C1225      C1231   1.511       .  S
C1225      C1229   1.525       .  S
C1225      C1420   1.523       .  S
C1226      C1227   1.375       .  D
C1227      C1228   1.543       .  S
C1228      C1232   1.591       .  S
C1228      C1230   1.545       .  S
C1228      H1234   1.107       .  S
C1229      C1230   1.360       .  D
C1229      H1235   1.085       .  S
C1230      C1254   1.503       .  S
C1231      C1232   1.360       .  D
C1231      H1236   1.083       .  S
C1232      C1239   1.508       .  S
C1237      C1238   1.520       .  S
C1237      C1243   1.526       .  S
C1237      C1241   1.532       .  S
C1237      C1410   1.521       .  S
C1238      C1239   1.364       .  D
C1238      H1245   1.081       .  S
C1239      C1240   1.594       .  S
C1240      C1244   1.541       .  S
C1240      C1446   1.546       .  S
C1240      H1450   1.107   1_554  S
C1241      C1446   1.363       .  D
C1242      C1444   1.545       .  S
C1242      C1445   1.360       .  D
C1243      C1244   1.371       .  D
C1243      H1248   1.086       .  S
C1244      C1472   1.501   1_554  S
H1246      C1444   1.107       .  S
C1249      C1250   1.540   1_655  S
C1249      C1255   1.517       .  S
C1249      C1253   1.531       .  S
C1249      C1403   1.534       .  S
C1250      C1251   1.366   1_455  D
C1251      C1252   1.546       .  S
C1252      C1256   1.591       .  S
C1252      C1254   1.536       .  S
C1252      H1258   1.106       .  S
C1253      C1254   1.369       .  D
C1253      H1259   1.086       .  S
C1255      C1256   1.367       .  D
C1255      H1260   1.082       .  S
C1256      C1263   1.510       .  S
C1261      C1262   1.516       .  S
C1261      C1267   1.530       .  S
C1261      C1265   1.539       .  S
C1261      C1390   1.534       .  S
C1262      C1263   1.367       .  D
C1262      H1269   1.082       .  S
C1263      C1264   1.591       .  S
C1264      C1268   1.548       .  S
C1264      C1266   1.540   1_655  S
C1264      H1270   1.107       .  S
C1265      C1266   1.366   1_655  D
C1265      H1271   1.077   1_655  S
C1267      C1268   1.368       .  D
C1267      H1272   1.083       .  S
C1268      C1448   1.506       .  S
C1273      C1274   1.526       .  S
C1273      C1279   1.534       .  S
C1273      C1277   1.525       .  S
C1273      C1380   1.527       .  S
C1274      C1275   1.365       .  D
C1274      H1281   1.078       .  S
C1275      C1276   1.585       .  S
C1275      C1292   1.510       .  S
C1276      C1280   1.541       .  S
C1276      C1278   1.543       .  S
C1276      H1282   1.107       .  S
C1277      C1278   1.366       .  D
C1277      H1283   1.084       .  S
C1278      C1302   1.508       .  S
C1279      C1280   1.372       .  D
C1285      C1286   1.531       .  S
C1285      C1291   1.526       .  S
C1285      C1289   1.534       .  S
C1285      C1370   1.529       .  S
C1286      C1287   1.367       .  D
C1286      H1293   1.083       .  S
C1287      C1288   1.543       .  S
C1287      C1515   1.496   1_554  S
C1288      C1292   1.588       .  S
C1288      C1494   1.540       .  S
C1288      H1498   1.106       .  S
C1289      C1494   1.370       .  D
C1290      C1492   1.536       .  S
C1290      C1493   1.370       .  D
C1291      C1292   1.366       .  D
C1291      H1296   1.079       .  S
H1294      C1492   1.106       .  S
C1297      C1298   1.519       .  S
C1297      C1303   1.538       .  S
C1297      C1301   1.527       .  S
C1297      C1360   1.528       .  S
C1298      C1299   1.362       .  D
C1298      H1305   1.078       .  S
C1299      C1300   1.584       .  S
C1299      C1316   1.504       .  S
C1300      C1304   1.543       .  S
C1300      C1302   1.543       .  S
C1300      H1306   1.107       .  S
C1301      C1302   1.365       .  D
C1301      H1307   1.085       .  S
C1303      C1304   1.377       .  D
C1309      C1310   1.541       .  S
C1309      C1315   1.521       .  S
C1309      C1313   1.531       .  S
C1309      C1350   1.532       .  S
C1310      C1311   1.382       .  D
C1310      H1317   1.074       .  S
C1311      C1312   1.537       .  S
C1311      C1491   1.500       .  S
C1312      C1316   1.581       .  S
C1312      C1314   1.543       .  S
C1312      H1318   1.105       .  S
C1313      C1314   1.359       .  D
C1313      H1319   1.085       .  S
C1315      C1316   1.363       .  D
C1315      H1320   1.083       .  S
O1321     Ni1329   1.915       .  S
O1321      C1331   1.282       .  A
O1322     Ni1329   1.922       .  S
O1322      C1332   1.282       .  A
O1323     Ni1329   1.901       .  S
O1323      C1333   1.276       .  A
O1324     Ni1329   1.899       .  S
O1324      C1334   1.279       .  A
O1325     Ni1330   1.919       .  S
O1325      C1334   1.282       .  A
O1326     Ni1330   1.915       .  S
O1326      C1333   1.281       .  A
O1327     Ni1330   1.908       .  S
O1327      C1332   1.279       .  A
O1328     Ni1330   1.912       .  S
O1328      C1331   1.280       .  A
Ni1329    Ni1330   2.391       .  S
C1331      C1393   1.476       .  S
C1332      C1373   1.467       .  S
C1333      C1413   1.456       .  S
C1334      C1353   1.481       .  S
O1335     Ni1547   1.908   1_554  S
O1336     Ni1343   1.912       .  S
O1336      C1346   1.281       .  A
O1337     Ni1343   1.918       .  S
O1337      C1347   1.282   1_545  A
O1338     Ni1547   1.900   1_554  S
O1339     Ni1548   1.918   1_554  S
O1339      C1348   1.282       .  A
O1340     Ni1344   1.914       .  S
O1341     Ni1344   1.894       .  S
O1342     Ni1548   1.916   1_554  S
O1342      C1345   1.282   1_545  A
Ni1343     O1539   1.909       .  S
Ni1343     O1542   1.909       .  S
Ni1344     O1543   1.912       .  S
Ni1344     O1546   1.895       .  S
C1345      C1423   1.471       .  S
C1346      C1363   1.466       .  S
C1347      C1400   1.477       .  S
C1348      C1383   1.468       .  S
C1349      C1350   1.407       .  A
C1349      C1354   1.387       .  A
C1349      H1356   1.084       .  S
C1350      C1351   1.417       .  A
C1351      C1352   1.402       .  A
C1351      F1358   1.350       .  S
C1352      C1353   1.405       .  A
C1352      H1357   1.083       .  S
C1353      C1354   1.406       .  A
C1354      F1355   1.353       .  S
C1359      C1360   1.409       .  A
C1359      C1364   1.392       .  A
C1359      H1366   1.080       .  S
C1360      C1361   1.419       .  A
C1361      C1362   1.400       .  A
C1362      C1363   1.397       .  A
C1363      C1364   1.403       .  A
C1364      F1365   1.356       .  S
C1369      C1370   1.406       .  A
C1369      C1374   1.395       .  A
C1369      H1376   1.079       .  S
C1370      C1371   1.421       .  A
C1371      C1372   1.399       .  A
C1371      F1378   1.357       .  S
C1372      C1373   1.395       .  A
C1372      H1377   1.083       .  S
C1373      C1374   1.404       .  A
C1374      F1375   1.356       .  S
C1379      C1384   1.387       .  A
C1379      H1386   1.075       .  S
C1380      C1381   1.420       .  A
C1381      C1382   1.399       .  A
C1381      F1388   1.357       .  S
C1382      C1383   1.397       .  A
C1382      H1387   1.083       .  S
C1384      F1385   1.358       .  S
C1389      C1390   1.414       .  A
C1389      C1394   1.393       .  A
C1389      H1396   1.076   1_655  S
C1390      C1391   1.413       .  A
C1391      C1392   1.399       .  A
C1391      F1398   1.359       .  S
C1392      C1393   1.406       .  A
C1392      H1397   1.084       .  S
C1393      C1394   1.399       .  A
C1394      F1395   1.357       .  S
C1399      C1400   1.405       .  A
C1399      C1404   1.400       .  A
C1399      H1406   1.083       .  S
C1401      F1408   1.354       .  S
C1402      C1403   1.411   1_455  A
C1403      C1404   1.415       .  A
C1404      F1405   1.358       .  S
C1409      C1410   1.403       .  A
C1409      C1414   1.391       .  A
C1409      H1416   1.082       .  S
C1410      C1411   1.422       .  A
C1411      C1412   1.394       .  A
C1411      F1418   1.356       .  S
C1412      C1413   1.391       .  A
C1412      H1417   1.084       .  S
C1413      C1414   1.403       .  A
C1414      F1415   1.354       .  S
C1419      C1420   1.414       .  A
C1419      C1424   1.393       .  A
C1419      H1426   1.084       .  S
C1420      C1421   1.407       .  A
C1422      H1427   1.083   1_455  S
C1423      C1424   1.403       .  A
C1424      F1425   1.358       .  S
C1429      C1430   1.535       .  S
C1429      C1435   1.513       .  S
C1429      C1433   1.535       .  S
C1429      C1624   1.513       .  S
C1430      C1431   1.373       .  D
C1431      C1432   1.546       .  S
C1432      C1436   1.591       .  S
C1432      C1434   1.539       .  S
C1432      H1438   1.106       .  S
C1433      C1434   1.358       .  D
C1433      H1439   1.085       .  S
C1434      C1458   1.499       .  S
C1435      C1436   1.357       .  D
C1435      H1440   1.083       .  S
C1436      C1443   1.506       .  S
C1441      C1442   1.513       .  S
C1441      C1447   1.542       .  S
C1441      C1445   1.527       .  S
C1441      C1614   1.521       .  S
C1442      C1443   1.357       .  D
C1442      H1449   1.081       .  S
C1443      C1444   1.594       .  S
C1444      C1448   1.551       .  S
C1447      C1448   1.375       .  D
C1447      H1452   1.078       .  S
C1453      C1454   1.539       .  S
C1453      C1459   1.523       .  S
C1453      C1457   1.532       .  S
C1453      C1607   1.533       .  S
C1454      C1455   1.368       .  D
C1455      C1456   1.545       .  S
C1456      C1460   1.583       .  S
C1456      C1458   1.532       .  S
C1456      H1462   1.106       .  S
C1457      C1458   1.368       .  D
C1457      H1463   1.085       .  S
C1459      C1460   1.367       .  D
C1459      H1464   1.082       .  S
C1460      C1467   1.504       .  S
C1465      C1466   1.513       .  S
C1465      C1471   1.527       .  S
C1465      C1469   1.546       .  S
C1465      C1594   1.532       .  S
C1466      C1467   1.365       .  D
C1466      H1473   1.082       .  S
C1467      C1468   1.586       .  S
C1468      C1472   1.546       .  S
C1468      C1470   1.536       .  S
C1468      H1474   1.107       .  S
C1469      C1470   1.374       .  D
C1469      H1475   1.080   1_655  S
C1471      C1472   1.365       .  D
C1471      H1476   1.086       .  S
C1477      C1478   1.527       .  S
C1477      C1483   1.533       .  S
C1477      C1481   1.530       .  S
C1477      C1584   1.531       .  S
C1478      C1479   1.364       .  D
C1478      H1485   1.077       .  S
C1479      C1480   1.585       .  S
C1479      C1496   1.512       .  S
C1480      C1484   1.546       .  S
C1480      C1482   1.541       .  S
C1480      H1486   1.107       .  S
C1481      C1482   1.368       .  D
C1481      H1487   1.086       .  S
C1482      C1506   1.508       .  S
C1483      C1484   1.373       .  D
C1489      C1490   1.536       .  S
C1489      C1495   1.521       .  S
C1489      C1493   1.534       .  S
C1489      C1574   1.529       .  S
C1490      C1491   1.360       .  D
C1490      H1497   1.079       .  S
C1491      C1492   1.547       .  S
C1492      C1496   1.595       .  S
C1495      C1496   1.370       .  D
C1495      H1500   1.082       .  S
C1501      C1502   1.522       .  S
C1501      C1507   1.537       .  S
C1501      C1505   1.527       .  S
C1501      C1564   1.527       .  S
C1502      C1503   1.362       .  D
C1502      H1509   1.077       .  S
C1503      C1504   1.585       .  S
C1503      C1520   1.506       .  S
C1504      C1508   1.545       .  S
C1504      C1506   1.546       .  S
C1504      H1510   1.107       .  S
C1505      C1506   1.363       .  D
C1505      H1511   1.086       .  S
C1507      C1508   1.377       .  D
C1513      C1514   1.540       .  S
C1513      C1519   1.520       .  S
C1513      C1517   1.535       .  S
C1513      C1554   1.532       .  S
C1514      C1515   1.376       .  D
C1514      H1521   1.075       .  S
C1515      C1516   1.538       .  S
C1516      C1520   1.584       .  S
C1516      C1518   1.541       .  S
C1516      H1522   1.106       .  S
C1517      C1518   1.363       .  D
C1517      H1523   1.085       .  S
C1519      C1520   1.362       .  D
C1519      H1524   1.083       .  S
O1525     Ni1533   1.911       .  S
O1525      C1535   1.279       .  A
O1526     Ni1533   1.904       .  S
O1526      C1536   1.280       .  A
O1527     Ni1533   1.902       .  S
O1527      C1537   1.279       .  A
O1528     Ni1533   1.904       .  S
O1528      C1538   1.280       .  A
O1529     Ni1534   1.912       .  S
O1529      C1538   1.281       .  A
O1530     Ni1534   1.912       .  S
O1530      C1537   1.281       .  A
O1531     Ni1534   1.917       .  S
O1531      C1536   1.281       .  A
O1532     Ni1534   1.913       .  S
O1532      C1535   1.282       .  A
Ni1533    Ni1534   2.389       .  S
C1535      C1597   1.473       .  S
C1536      C1577   1.473       .  S
C1537      C1617   1.471       .  S
C1538      C1557   1.480       .  S
O1540     Ni1547   1.913       .  S
O1540      C1550   1.281       .  A
O1541     Ni1547   1.913       .  S
O1541      C1551   1.281   1_545  A
O1543      C1552   1.280       .  A
O1544     Ni1548   1.922       .  S
O1545     Ni1548   1.910       .  S
O1546      C1549   1.279   1_545  A
C1549      C1627   1.464       .  S
C1550      C1567   1.467       .  S
C1551      C1604   1.478       .  S
C1552      C1587   1.468       .  S
C1553      C1554   1.408       .  A
C1553      C1558   1.390       .  A
C1553      H1560   1.083       .  S
C1554      C1555   1.417       .  A
C1555      C1556   1.399       .  A
C1555      F1562   1.350       .  S
C1556      C1557   1.404       .  A
C1556      H1561   1.083       .  S
C1557      C1558   1.406       .  A
C1558      F1559   1.357       .  S
C1563      C1564   1.408       .  A
C1563      C1568   1.392       .  A
C1563      H1570   1.079       .  S
C1564      C1565   1.419       .  A
C1565      C1566   1.399       .  A
C1566      C1567   1.396       .  A
C1567      C1568   1.403       .  A
C1568      F1569   1.356       .  S
C1573      C1574   1.416       .  A
C1573      C1578   1.389       .  A
C1573      H1580   1.077       .  S
C1574      C1575   1.411       .  A
C1575      C1576   1.403       .  A
C1575      F1582   1.357       .  S
C1576      C1577   1.406       .  A
C1576      H1581   1.082       .  S
C1577      C1578   1.398       .  A
C1578      F1579   1.358       .  S
C1583      C1588   1.390       .  A
C1583      H1590   1.079       .  S
C1584      C1585   1.421       .  A
C1585      C1586   1.402       .  A
C1585      F1592   1.358       .  S
C1586      C1587   1.397       .  A
C1586      H1591   1.083       .  S
C1588      F1589   1.358       .  S
C1593      C1594   1.414       .  A
C1593      C1598   1.399       .  A
C1593      H1600   1.077   1_655  S
C1594      C1595   1.412       .  A
C1595      C1596   1.393       .  A
C1595      F1602   1.359       .  S
C1596      C1597   1.402       .  A
C1596      H1601   1.083       .  S
C1597      C1598   1.402       .  A
C1598      F1599   1.357       .  S
C1603      C1604   1.405       .  A
C1603      C1608   1.399       .  A
C1603      H1610   1.082       .  S
C1605      F1612   1.356       .  S
C1606      C1607   1.416       .  A
C1607      C1608   1.412       .  A
C1608      F1609   1.358       .  S
C1613      C1614   1.412       .  A
C1613      C1618   1.391       .  A
C1613      H1620   1.083       .  S
C1614      C1615   1.416       .  A
C1615      C1616   1.395       .  A
C1615      F1622   1.354       .  S
C1616      C1617   1.401       .  A
C1616      H1621   1.083       .  S
C1617      C1618   1.404       .  A
C1618      F1619   1.358       .  S
C1623      C1624   1.406       .  A
C1623      C1628   1.382       .  A
C1623      H1630   1.084       .  S
C1624      C1625   1.409       .  A
C1626      H1631   1.083       .  S
C1627      C1628   1.404       .  A
C1628      F1629   1.358       .  S
