geometry optimzed in LAMMPS
_audit_creation_date              2020-12-01 
_audit_creation_method            'lammps2cif' 
_symmetry_space_group_name_H-M    'P1' 
_symmetry_Int_Tables_number       1 
_symmetry_cell_setting            triclinic 
loop_ 
_symmetry_equiv_pos_as_xyz 
  x,y,z 
_cell_length_a                    68.65613608 
_cell_length_b                    57.101292418122476 
_cell_length_c                    26.814844276766813 
_cell_angle_alpha                 89.533037191953 
_cell_angle_beta                  90.33626884964923 
_cell_angle_gamma                 90.14133503617141 
loop_ 
_atom_site_label 
_atom_site_type_symbol 
_atom_site_fract_x 
_atom_site_fract_y 
_atom_site_fract_z 
_atom_site_charge 
O1          O  0.52194799  0.01231192  0.05967007    -0.73300
O2          O  0.47953471  0.98086320  0.97981839    -0.74300
O3          O  0.52068356  0.97863516  0.98139241    -0.62900
O4          O  0.48058397  0.01428747  0.05873159    -0.71300
O5          O  0.48238747  0.04346794  0.00373699    -0.70800
O6          O  0.52114659  0.00681426  0.92380824    -0.62100
O7          O  0.47981441  0.01030238  0.92570609    -0.74600
O8          O  0.52401981  0.03976080  0.00155345    -0.73400
Cu9        Cu  0.50065010  0.99553989  0.02190027     1.04600
Cu10       Cu  0.50188651  0.02611625  0.96185270     1.04300
C11         C  0.53000107  0.03093564  0.04278701     0.92900
C12         C  0.47288768  0.99061872  0.94015170     0.92100
C13         C  0.52700556  0.98696835  0.94019925     0.84200
C14         C  0.47515736  0.03449229  0.04337521     0.90500
O15         O  0.47358083  0.50205449  0.06853790    -0.73300
O16         O  0.51824610  0.53363135  0.99875326    -0.74300
O17         O  0.47762970  0.53358172  0.98567992    -0.62900
O18         O  0.51514433  0.50173954  0.08041007    -0.71300
O19         O  0.51578701  0.47132931  0.03046374    -0.70800
O20         O  0.47989987  0.50363015  0.93412241    -0.62100
O21         O  0.52086489  0.50323391  0.94814499    -0.74600
O22         O  0.47482794  0.47243905  0.01553382    -0.73400
Cu23       Cu  0.49605520  0.51873744  0.03530456     1.04600
Cu24       Cu  0.49796240  0.48658692  0.98039864     1.04300
C25         C  0.46698575  0.48250504  0.05272902     0.92900
C26         C  0.52629432  0.52367262  0.96182146     0.92100
C27         C  0.47322116  0.52384927  0.94430702     0.84200
C28         C  0.52148854  0.48128435  0.07043896     0.90500
N29         N  0.10581400  0.09962214  0.80930997    -0.27600
N30         N  0.11414946  0.07921720  0.80060747    -0.35500
C31         C  0.10329976  0.06208258  0.82123396     0.00700
C32         C  0.08746381  0.07224115  0.84415052     0.06700
C33         C  0.08950460  0.09604668  0.83595547    -0.06400
H34         H  0.10638688  0.04356934  0.81850957     0.07400
H35         H  0.07950646  0.10965871  0.84690852     0.08600
Cu36       Cu  0.13896635  0.07553425  0.75737703     0.44200
Cu37       Cu  0.11588201  0.13101487  0.77976054     0.42000
Cu38       Cu  0.15380851  0.12684472  0.68615426     0.43900
N39         N  0.16146170  0.07551277  0.70585170    -0.35000
N40         N  0.16617896  0.09383457  0.67794382    -0.29300
C41         C  0.18012958  0.08747293  0.64571708    -0.05400
C42         C  0.18458955  0.06407258  0.65397956     0.06900
C43         C  0.17254938  0.05718956  0.69279207     0.00700
H44         H  0.18649903  0.09901681  0.61805353     0.08300
H45         H  0.17174780  0.04003877  0.71008659     0.07400
N46         N  0.14051384  0.15812378  0.70618960    -0.36500
N47         N  0.12685305  0.15954966  0.74062617    -0.28600
C48         C  0.12181230  0.18211737  0.74621152    -0.03900
C49         C  0.13282883  0.19557566  0.71385527     0.04700
C50         C  0.14455251  0.17982758  0.68907046     0.02800
H51         H  0.11124457  0.18833517  0.77275369     0.07900
H52         H  0.15551014  0.18390770  0.66148074     0.06800
N53         N  0.10195751  0.39313535  0.79330455    -0.27600
N54         N  0.10785248  0.41404410  0.77805698    -0.35500
C55         C  0.09781038  0.43051773  0.80268581     0.00700
C56         C  0.08506912  0.41947208  0.83529616     0.06700
C57         C  0.08817032  0.39575423  0.82830467    -0.06400
H58         H  0.09967225  0.44918803  0.79735601     0.07400
H59         H  0.08097663  0.38142226  0.84741370     0.08600
Cu60       Cu  0.12990009  0.41895014  0.72574011     0.44200
Cu61       Cu  0.11279601  0.36197607  0.76521806     0.42000
Cu62       Cu  0.15111033  0.36612768  0.67300759     0.43900
N63         N  0.15327168  0.41904448  0.67630643    -0.35000
N64         N  0.16099202  0.39989091  0.65727975    -0.29300
C65         C  0.17625539  0.40599119  0.62857164    -0.05400
C66         C  0.17826150  0.43011154  0.62960316     0.06900
C67         C  0.16343309  0.43779829  0.66012766     0.00700
H68         H  0.18541242  0.39374934  0.60903125     0.08300
H69         H  0.16051718  0.45569327  0.67066215     0.07400
N70         N  0.13921742  0.33450900  0.69749799    -0.36500
N71         N  0.12525296  0.33311228  0.73119039    -0.28600
C72         C  0.12091277  0.31043647  0.73951850    -0.03900
C73         C  0.13269860  0.29687853  0.70974572     0.04700
C74         C  0.14415099  0.31269647  0.68359821     0.02800
H75         H  0.11010860  0.30424356  0.76574399     0.07900
H76         H  0.15530651  0.30864196  0.65670196     0.06800
N77         N  0.39746753  0.91212568  0.79264163    -0.27600
N78         N  0.39057353  0.93129747  0.77097566    -0.35500
C79         C  0.39995585  0.95002064  0.78997678     0.00700
C80         C  0.41339193  0.94215179  0.82512178     0.06700
C81         C  0.41138110  0.91806332  0.82568645    -0.06400
H82         H  0.39738094  0.96797795  0.77863382     0.07400
H83         H  0.41968378  0.90569779  0.84793866     0.08600
Cu84       Cu  0.36916015  0.93053037  0.71531709     0.44200
Cu85       Cu  0.38829665  0.87853961  0.77564957     0.42000
Cu86       Cu  0.35263788  0.87238307  0.67721168     0.43900
N87         N  0.34776731  0.92460206  0.66108458    -0.35000
N88         N  0.34181987  0.90354895  0.64723170    -0.29300
C89         C  0.32733890  0.90592259  0.61344369    -0.05400
C90         C  0.32398652  0.92957481  0.60563458     0.06900
C91         C  0.33722121  0.94087158  0.63636681     0.00700
H92         H  0.31947348  0.89149835  0.59678931     0.08300
H93         H  0.33864541  0.95956972  0.64153726     0.07400
N94         N  0.36472494  0.84409979  0.71584702    -0.36500
N95         N  0.37772253  0.84647176  0.75207621    -0.28600
C96         C  0.38265167  0.82515747  0.76971509    -0.03900
C97         C  0.37221590  0.80860922  0.74339413     0.04700
C98         C  0.36100881  0.82114563  0.70951971     0.02800
H99         H  0.39309826  0.82195346  0.79933643     0.07900
H100        H  0.35096977  0.81410195  0.68221656     0.06800
N101        N  0.41118429  0.60746524  0.77292954    -0.27600
N102        N  0.40429492  0.58891144  0.74944768    -0.35500
C103        C  0.41356726  0.56970534  0.76667039     0.00700
C104        C  0.42689370  0.57665285  0.80252965     0.06700
C105        C  0.42506295  0.60066639  0.80533572    -0.06400
H106        H  0.40980881  0.55191936  0.75680341     0.07400
H107        H  0.43218583  0.61210116  0.83179234     0.08600
Cu108      Cu  0.37973063  0.59002898  0.70409090     0.44200
Cu109      Cu  0.39888107  0.64031500  0.76836575     0.42000
Cu110      Cu  0.34895293  0.64053056  0.72547780     0.43900
N111        N  0.35073448  0.59184473  0.68245831    -0.35000
N112        N  0.33893019  0.60891238  0.69565562    -0.29300
C113        C  0.32049109  0.60256063  0.68465213    -0.05400
C114        C  0.32068355  0.58067697  0.66203425     0.06900
C115        C  0.34026109  0.57472253  0.66096966     0.00700
H116        H  0.30788563  0.61296385  0.69367623     0.08300
H117        H  0.34648036  0.55872474  0.64686721     0.07400
N118        N  0.36422013  0.67072961  0.74630832    -0.36500
N119        N  0.38246042  0.67040996  0.76238787    -0.28600
C120        C  0.38853801  0.69246079  0.77046143    -0.03900
C121        C  0.37351834  0.70756316  0.75817982     0.04700
C122        C  0.35829905  0.69316818  0.74315762     0.02800
H123        H  0.40303692  0.69716566  0.78290831     0.07900
H124        H  0.34419135  0.69867605  0.72930048     0.06800
N125        N  0.10486363  0.89795715  0.17457517    -0.27600
N126        N  0.11529960  0.91742520  0.17715553    -0.35500
C127        C  0.10528906  0.93490997  0.15475572     0.00700
C128        C  0.08774921  0.92596167  0.13742924     0.06700
C129        C  0.08800829  0.90250577  0.15058393    -0.06400
H130        H  0.11017394  0.95290864  0.15235143     0.07400
H131        H  0.07662656  0.88975437  0.14391208     0.08600
Cu132      Cu  0.14196030  0.91940701  0.21492829     0.44200
Cu133      Cu  0.11343079  0.86621471  0.20590982     0.42000
Cu134      Cu  0.15438782  0.86812501  0.29085323     0.43900
N135        N  0.16518815  0.91828902  0.26559505    -0.35000
N136        N  0.16869178  0.90042725  0.29602201    -0.29300
C137        C  0.18251912  0.90679785  0.32921398    -0.05400
C138        C  0.18829280  0.92968026  0.31892125     0.06900
C139        C  0.17711002  0.93613308  0.27770804     0.00700
H140        H  0.18748443  0.89583506  0.35979212     0.08300
H141        H  0.17700535  0.95301212  0.25911730     0.07400
N142        N  0.13963672  0.83723072  0.27250197    -0.36500
N143        N  0.12470044  0.83664619  0.24115466    -0.28600
C144        C  0.11922078  0.81423544  0.23436223    -0.03900
C145        C  0.13132895  0.79990938  0.26256556     0.04700
C146        C  0.14406099  0.81511705  0.28637666     0.02800
H147        H  0.10767260  0.80871145  0.20944472     0.07900
H148        H  0.15614654  0.81036351  0.31043551     0.06800
N149        N  0.10257932  0.59678734  0.21025155    -0.27600
N150        N  0.11240855  0.57737021  0.21995848    -0.35500
C151        C  0.10252651  0.55890878  0.20195435     0.00700
C152        C  0.08558318  0.56693375  0.17980655     0.06700
C153        C  0.08607172  0.59107224  0.18561798    -0.06400
H154        H  0.10755548  0.54097767  0.20374834     0.07400
H155        H  0.07543973  0.60355571  0.17195368     0.08600
Cu156      Cu  0.13912702  0.57644446  0.25574664     0.44200
Cu157      Cu  0.11292139  0.63008282  0.22942774     0.42000
Cu158      Cu  0.16057772  0.63163518  0.29096605     0.43900
N159        N  0.16501593  0.57901921  0.29497656    -0.35000
N160        N  0.17299504  0.59919519  0.30787266    -0.29300
C161        C  0.18861375  0.59484068  0.33702792    -0.05400
C162        C  0.19047378  0.57080390  0.34277598     0.06900
C163        C  0.17526413  0.56134080  0.31559640     0.00700
H164        H  0.19723110  0.60816678  0.35533904     0.08300
H165        H  0.17119863  0.54305113  0.31363600     0.07400
N166        N  0.14433943  0.66147489  0.27345248    -0.36500
N167        N  0.12707780  0.66092864  0.25117101    -0.28600
C168        C  0.12069021  0.68306874  0.24491109    -0.03900
C169        C  0.13450471  0.69824554  0.26431893     0.04700
C170        C  0.14929828  0.68395155  0.28207647     0.02800
H171        H  0.10703789  0.68780957  0.22724060     0.07900
H172        H  0.16277376  0.68950307  0.29949017     0.06800
C173        C  0.26262181  0.52304246  0.56005968     0.86200
C174        C  0.25196143  0.53727111  0.51891665    -0.54100
C175        C  0.24132839  0.52428851  0.48607624     0.09100
C176        C  0.24344839  0.49771348  0.49454318     0.20000
C177        C  0.24687866  0.50703904  0.58289708    -0.54800
C178        C  0.23696247  0.49342053  0.54911405     0.09200
C179        C  0.27539327  0.50639730  0.52956998    -0.54300
C180        C  0.26574144  0.49347289  0.49441136     0.09800
H181        H  0.25300017  0.55605924  0.51423763     0.14300
H182        H  0.23524947  0.48730479  0.46671526     0.00000
H183        H  0.24410221  0.50619447  0.62269377     0.14600
H184        H  0.29110695  0.50566724  0.53396974     0.14400
N185        N  0.39567443  0.10994582  0.18416871    -0.27600
N186        N  0.38789946  0.08923450  0.19449188    -0.35500
C187        C  0.39919898  0.07238230  0.17511256     0.00700
C188        C  0.41488813  0.08292170  0.15176431     0.06700
C189        C  0.41219139  0.10673802  0.15811451    -0.06400
H190        H  0.39623510  0.05380201  0.17786687     0.07400
H191        H  0.42148220  0.12069399  0.14452460     0.08600
Cu192      Cu  0.36265816  0.08450002  0.23631484     0.44200
Cu193      Cu  0.38354419  0.14168911  0.20675570     0.42000
Cu194      Cu  0.34325347  0.13690867  0.29298172     0.43900
N195        N  0.33914481  0.08420953  0.28521022    -0.35000
N196        N  0.33240103  0.10330499  0.30671447    -0.29300
C197        C  0.31789632  0.09722914  0.33787981    -0.05400
C198        C  0.31529092  0.07321136  0.33573192     0.06900
C199        C  0.32901812  0.06550686  0.30200053     0.00700
H200        H  0.30992845  0.10937174  0.36079616     0.08300
H201        H  0.33172295  0.04758353  0.29131479     0.07400
N202        N  0.35553307  0.16882168  0.27105480    -0.36500
N203        N  0.36987644  0.17062716  0.23851024    -0.28600
C204        C  0.37432987  0.19345464  0.23208326    -0.03900
C205        C  0.36237008  0.20671570  0.26235208     0.04700
C206        C  0.35064331  0.19042456  0.28646765     0.02800
H207        H  0.38564841  0.19993345  0.20765362     0.07900
H208        H  0.33951927  0.19400842  0.31375701     0.06800
N209        N  0.38767325  0.40643637  0.19131579    -0.27600
N210        N  0.37712335  0.42565653  0.19544701    -0.35500
C211        C  0.38617203  0.44334960  0.17125918     0.00700
C212        C  0.40322722  0.43479936  0.15099633     0.06700
C213        C  0.40366338  0.41134754  0.16441157    -0.06400
H214        H  0.38124817  0.46133258  0.17070439     0.07400
H215        H  0.41519633  0.39900469  0.15695355     0.08600
Cu216      Cu  0.35241024  0.42722850  0.23989405     0.44200
Cu217      Cu  0.38070144  0.37488093  0.22616356     0.42000
Cu218      Cu  0.34381698  0.37637732  0.32157430     0.43900
N219        N  0.33217534  0.42647057  0.29740889    -0.35000
N220        N  0.33004140  0.40879884  0.32915203    -0.29300
C221        C  0.31764070  0.41529710  0.36523844    -0.05400
C222        C  0.31148900  0.43804989  0.35563033     0.06900
C223        C  0.32089349  0.44438114  0.31190602     0.00700
H224        H  0.31371750  0.40442671  0.39686533     0.08300
H225        H  0.32008291  0.46108481  0.29270833     0.07400
N226        N  0.35709025  0.34544871  0.29804312    -0.36500
N227        N  0.37048493  0.34510404  0.26280295    -0.28600
C228        C  0.37501385  0.32273441  0.25268062    -0.03900
C229        C  0.36396217  0.30814698  0.28281759     0.04700
C230        C  0.35277606  0.32318416  0.31125238     0.02800
H231        H  0.38506385  0.31742311  0.22400150     0.07900
H232        H  0.34181744  0.31826956  0.33823534     0.06800
C233        C  0.23775710  0.01277123  0.52442423     0.86200
C234        C  0.25319457  0.99591383  0.54474256    -0.54100
C235        C  0.26394822  0.98464393  0.50934329     0.09100
C236        C  0.25841595  0.99216466  0.45523996     0.20000
C237        C  0.24908160  0.02983235  0.49015807    -0.54800
C238        C  0.26038267  0.01920148  0.45506707     0.09200
C239        C  0.22583656  0.99838637  0.48684963    -0.54300
C240        C  0.23620994  0.98750342  0.45055194     0.09800
H241        H  0.25538003  0.99306257  0.58448277     0.14300
H242        H  0.26701057  0.98368553  0.42564326     0.00000
H243        H  0.24851532  0.04873690  0.49346546     0.14600
H244        H  0.21009135  0.99752357  0.48752843     0.14400
O245        O  0.02350949  0.49047923  0.08153301    -0.73300
O246        O  0.98169932  0.45835726  0.99821583    -0.74300
O247        O  0.02313003  0.45712549  0.00259975    -0.62900
O248        O  0.98164615  0.49098260  0.07865766    -0.71300
O249        O  0.98200104  0.52001450  0.02316005    -0.70800
O250        O  0.02426560  0.48665162  0.94829566    -0.62100
O251        O  0.98272472  0.48781457  0.94425398    -0.74600
O252        O  0.02303887  0.51976825  0.02757906    -0.73400
Cu253      Cu  0.00245910  0.47321037  0.04229903     1.04600
Cu254      Cu  0.00310407  0.50452248  0.98400049     1.04300
C255        C  0.02992727  0.51051753  0.06734545     0.92900
C256        C  0.97560824  0.46814656  0.95787388     0.92100
C257        C  0.03009571  0.46649030  0.96318127     0.84200
C258        C  0.97517863  0.51066464  0.06281713     0.90500
O259        O  0.01680955  0.02878276  0.97970466    -0.73300
O260        O  0.97480633  0.99155181  0.04806816    -0.74300
O261        O  0.01665743  0.99279611  0.05430971    -0.62900
O262        O  0.97560936  0.02752090  0.97389925    -0.71300
O263        O  0.97708141  0.00006881  0.91594316    -0.70800
O264        O  0.01880016  0.96631624  0.99453292    -0.62100
O265        O  0.97758511  0.96413742  0.99119100    -0.74600
O266        O  0.01870356  0.00185393  0.92120752    -0.73400
Cu267      Cu  0.99588270  0.01105012  0.01618631     1.04600
Cu268      Cu  0.99801726  0.98216429  0.95374477     1.04300
C269        C  0.02451797  0.02121209  0.93970511     0.92900
C270        C  0.96947003  0.97180857  0.03051327     0.92100
C271        C  0.02453420  0.97441274  0.03636330     0.84200
C272        C  0.97010137  0.01934344  0.93187996     0.90500
N273        N  0.89907311  0.09895470  0.76705350    -0.27600
N274        N  0.89645514  0.07977912  0.74046284    -0.35500
C275        C  0.90723732  0.06236181  0.76061820     0.00700
C276        C  0.91713439  0.07094764  0.80190681     0.06700
C277        C  0.91157389  0.09422802  0.80473757    -0.06400
H278        H  0.90771213  0.04466702  0.74656062     0.07400
H279        H  0.91613822  0.10675752  0.83253438     0.08600
Cu280      Cu  0.87722371  0.07812020  0.67978865     0.44200
Cu281      Cu  0.88521561  0.13065110  0.75080956     0.42000
Cu282      Cu  0.84673321  0.12952340  0.65732750     0.43900
N283        N  0.85361273  0.07892982  0.63018148    -0.35000
N284        N  0.84164674  0.09691844  0.62500204    -0.29300
C285        C  0.82616406  0.09026618  0.59729761    -0.05400
C286        C  0.82852506  0.06702646  0.58380174     0.06900
C287        C  0.84631893  0.06066372  0.60470922     0.00700
H288        H  0.81368065  0.10124117  0.58942997     0.08300
H289        H  0.85298087  0.04352595  0.60388483     0.07400
N290        N  0.85674441  0.16022133  0.69078407    -0.36500
N291        N  0.87066516  0.16052350  0.72513330    -0.28600
C292        C  0.87434028  0.18289242  0.73776133    -0.03900
C293        C  0.86226889  0.19742190  0.70994768     0.04700
C294        C  0.85129790  0.18243907  0.68053410     0.02800
H295        H  0.88538510  0.18826389  0.76426994     0.07900
H296        H  0.84042298  0.18736051  0.65306022     0.06800
N297        N  0.89888311  0.39630920  0.79566022    -0.27600
N298        N  0.89179398  0.41700824  0.78236151    -0.35500
C299        C  0.90195547  0.43388788  0.80593850     0.00700
C300        C  0.91604922  0.42337229  0.83563157     0.06700
C301        C  0.91368139  0.39955769  0.82819021    -0.06400
H302        H  0.89931813  0.45247127  0.80170614     0.07400
H303        H  0.92224677  0.38562736  0.84479763     0.08600
Cu304      Cu  0.86832599  0.42167926  0.73334530     0.44200
Cu305      Cu  0.88832469  0.36435448  0.76866795     0.42000
Cu306      Cu  0.84672902  0.36841039  0.68573487     0.43900
N307        N  0.84366303  0.42124291  0.68732520    -0.35000
N308        N  0.83568341  0.40169006  0.67057243    -0.29300
C309        C  0.81988871  0.40709530  0.64280083    -0.05400
C310        C  0.81779523  0.43119807  0.64186277     0.06900
C311        C  0.83315397  0.43961540  0.67041901     0.00700
H312        H  0.81068664  0.39442024  0.62424895     0.08300
H313        H  0.83642091  0.45775914  0.67832040     0.07400
N314        N  0.85973698  0.33675574  0.70589675    -0.36500
N315        N  0.87484873  0.33512614  0.73658235    -0.28600
C316        C  0.87921612  0.31229091  0.74337188    -0.03900
C317        C  0.86629345  0.29896756  0.71545969     0.04700
C318        C  0.85417471  0.31507784  0.69222364     0.02800
H319        H  0.89076018  0.30582126  0.76737002     0.07900
H320        H  0.84192794  0.31128155  0.66801502     0.06800
N321        N  0.88952840  0.88907966  0.15487789    -0.27600
N322        N  0.88117631  0.90904536  0.16697101    -0.35500
C323        C  0.89196787  0.92696893  0.14978698     0.00700
C324        C  0.90796120  0.91785353  0.12587243     0.06700
C325        C  0.90598333  0.89377114  0.12964419    -0.06400
H326        H  0.88852997  0.94527739  0.15480528     0.07400
H327        H  0.91584611  0.88067990  0.11553935     0.08600
Cu328      Cu  0.85612087  0.91114096  0.20837024     0.44200
Cu329      Cu  0.87802595  0.85673926  0.17470318     0.42000
Cu330      Cu  0.83342378  0.85748735  0.24942368     0.43900
N331        N  0.83233138  0.91005859  0.25462159    -0.35000
N332        N  0.82375110  0.89052161  0.26964949    -0.29300
C333        C  0.80942050  0.89600200  0.30151343    -0.05400
C334        C  0.80913648  0.92013063  0.30677750     0.06900
C335        C  0.82386599  0.92842384  0.27657907     0.00700
H336        H  0.80036016  0.88335774  0.32077289     0.08300
H337        H  0.82855879  0.94642391  0.27225622     0.07400
N338        N  0.84758505  0.82721491  0.22717448    -0.36500
N339        N  0.86368729  0.82701820  0.20026398    -0.28600
C340        C  0.86938908  0.80473183  0.19403292    -0.03900
C341        C  0.85629776  0.79023798  0.21819545     0.04700
C342        C  0.84266114  0.80501989  0.23880350     0.02800
H343        H  0.88235575  0.79949616  0.17432704     0.07900
H344        H  0.83028233  0.80003641  0.26134053     0.06800
N345        N  0.89938612  0.59073499  0.20102340    -0.27600
N346        N  0.89207565  0.57088154  0.21860928    -0.35500
C347        C  0.90233668  0.55285638  0.20052134     0.00700
C348        C  0.91669053  0.56182873  0.17002039     0.06700
C349        C  0.91450332  0.58585525  0.17117118    -0.06400
H350        H  0.89942178  0.53458673  0.20853213     0.07400
H351        H  0.92313754  0.59879602  0.15151276     0.08600
Cu352      Cu  0.86777403  0.56878500  0.26376990     0.44200
Cu353      Cu  0.88788980  0.62342754  0.21635804     0.42000
Cu354      Cu  0.84149533  0.62256282  0.28038557     0.43900
N355        N  0.84161515  0.57074084  0.30148860    -0.35000
N356        N  0.83168151  0.59038531  0.30620979    -0.29300
C357        C  0.81543558  0.58597304  0.33242664    -0.05400
C358        C  0.81520865  0.56243922  0.34509237     0.06900
C359        C  0.83203197  0.55331012  0.32489529     0.00700
H360        H  0.80486536  0.59905691  0.34279793     0.08300
H361        H  0.83714390  0.53544506  0.32793924     0.07400
N362        N  0.85510691  0.65288438  0.25573691    -0.36500
N363        N  0.87208786  0.65327168  0.23268414    -0.28600
C364        C  0.87670111  0.67558530  0.22131311    -0.03900
C365        C  0.86192561  0.68982435  0.23817055     0.04700
C366        C  0.84849182  0.67492009  0.25982458     0.02800
H367        H  0.88974869  0.68101753  0.20192186     0.07900
H368        H  0.83483856  0.67971022  0.27685835     0.06800
N369        N  0.60718843  0.10323812  0.20095986    -0.27600
N370        N  0.62033625  0.08712985  0.19077544    -0.35500
C371        C  0.61193992  0.07069290  0.16178693     0.00700
C372        C  0.59254150  0.07673788  0.15387041     0.06700
C373        C  0.59013741  0.09735869  0.17978692    -0.06400
H374        H  0.61939295  0.05549472  0.14757672     0.07400
H375        H  0.57695140  0.10758566  0.18259056     0.08600
Cu376      Cu  0.64835847  0.08774986  0.22187896     0.44200
Cu377      Cu  0.61296377  0.13367254  0.23934634     0.42000
Cu378      Cu  0.65554920  0.13434527  0.31387738     0.43900
N379        N  0.67019960  0.08796021  0.27656526    -0.35000
N380        N  0.67082881  0.10305976  0.31361633    -0.29300
C381        C  0.68291565  0.09489188  0.34935124    -0.05400
C382        C  0.69090192  0.07387835  0.33371641     0.06900
C383        C  0.68270529  0.07046776  0.28672720     0.00700
H384        H  0.68482969  0.10318607  0.38511349     0.08300
H385        H  0.68480521  0.05561309  0.26263216     0.07400
N386        N  0.63992811  0.16448600  0.29734302    -0.36500
N387        N  0.62389929  0.16407654  0.26988005    -0.28600
C388        C  0.61761718  0.18611165  0.26238157    -0.03900
C389        C  0.63035957  0.20107546  0.28630257     0.04700
C390        C  0.64437367  0.18686844  0.30802593     0.02800
H391        H  0.60511141  0.19091711  0.23983539     0.07900
H392        H  0.65710674  0.19241595  0.32878540     0.06800
N393        N  0.59068243  0.40137989  0.23992286    -0.27600
N394        N  0.59953801  0.42128214  0.25085706    -0.35500
C395        C  0.58963366  0.43915645  0.22988072     0.00700
C396        C  0.57371480  0.43011938  0.20460544     0.06700
C397        C  0.57479572  0.40609486  0.21195826    -0.06400
H398        H  0.59425105  0.45727911  0.23070078     0.07400
H399        H  0.56532932  0.39295213  0.19590667     0.08600
Cu400      Cu  0.62601201  0.42292810  0.28828541     0.44200
Cu401      Cu  0.60236486  0.36875240  0.25771021     0.42000
Cu402      Cu  0.65387853  0.36947509  0.29328253     0.43900
N403        N  0.65418855  0.42079145  0.31616382    -0.35000
N404        N  0.66503697  0.40177027  0.31394468    -0.29300
C405        C  0.68284133  0.40658335  0.33256239    -0.05400
C406        C  0.68308697  0.42964468  0.34855340     0.06900
C407        C  0.66457232  0.43796553  0.33761433     0.00700
H408        H  0.69455807  0.39400870  0.33516490     0.08300
H409        H  0.65890384  0.45519952  0.34543912     0.07400
N410        N  0.63741184  0.33920348  0.28516662    -0.36500
N411        N  0.61867101  0.33887142  0.27331281    -0.28600
C412        C  0.61251808  0.31647635  0.27199138    -0.03900
C413        C  0.62811939  0.30210743  0.28361041     0.04700
C414        C  0.64363560  0.31708179  0.29180680     0.02800
H415        H  0.59787427  0.31103612  0.26238179     0.07900
H416        H  0.65841123  0.31223833  0.30152489     0.06800
N417        N  0.60168890  0.90546398  0.80004211    -0.27600
N418        N  0.60715066  0.92480553  0.77650694    -0.35500
C419        C  0.59573884  0.94256182  0.79114904     0.00700
C420        C  0.58263807  0.93404745  0.82605087     0.06700
C421        C  0.58686279  0.91044960  0.83069604    -0.06400
H422        H  0.59723881  0.96049993  0.77841747     0.07400
H423        H  0.57996251  0.89790434  0.85539556     0.08600
Cu424      Cu  0.63111588  0.92664399  0.72948380     0.44200
Cu425      Cu  0.61452525  0.87312088  0.78971428     0.42000
Cu426      Cu  0.65711301  0.87191470  0.71213217     0.43900
N427        N  0.65710262  0.92401009  0.69041526    -0.35000
N428        N  0.66664742  0.90409745  0.68486911    -0.29300
C429        C  0.68275956  0.90818392  0.65786094    -0.05400
C430        C  0.68341497  0.93175821  0.64602244     0.06900
C431        C  0.66692820  0.94130730  0.66701532     0.00700
H432        H  0.69303400  0.89489682  0.64677320     0.08300
H433        H  0.66227157  0.95937229  0.66481440     0.07400
N434        N  0.64368344  0.84192710  0.73994645    -0.36500
N435        N  0.62800759  0.84245520  0.76832096    -0.28600
C436        C  0.62231835  0.82038982  0.77857549    -0.03900
C437        C  0.63505265  0.80526407  0.75560801     0.04700
C438        C  0.64844805  0.81945845  0.73152663     0.02800
H439        H  0.60976905  0.81571130  0.80077718     0.07900
H440        H  0.66058301  0.81386549  0.70902992     0.06800
N441        N  0.60226491  0.60411003  0.81882259    -0.27600
N442        N  0.60724052  0.58470830  0.79565247    -0.35500
C443        C  0.59676739  0.56670624  0.81401746     0.00700
C444        C  0.58464148  0.57515198  0.85072557     0.06700
C445        C  0.58856944  0.59894207  0.85287487    -0.06400
H446        H  0.59772432  0.54884301  0.80112133     0.07400
H447        H  0.58173119  0.61162490  0.87684342     0.08600
Cu448      Cu  0.62834287  0.58368157  0.74096575     0.44200
Cu449      Cu  0.61373762  0.63673586  0.80065690     0.42000
Cu450      Cu  0.65431993  0.63732561  0.71278786     0.43900
N451        N  0.65240697  0.58538933  0.69498625    -0.35000
N452        N  0.66256398  0.60465906  0.68612452    -0.29300
C453        C  0.67808110  0.59917139  0.65795716    -0.05400
C454        C  0.67756287  0.57530884  0.64862837     0.06900
C455        C  0.66097111  0.56727523  0.67234152     0.00700
H456        H  0.68898435  0.61157141  0.64548232     0.08300
H457        H  0.65563221  0.54944042  0.67365522     0.07400
N458        N  0.64141941  0.66731480  0.74145367    -0.36500
N459        N  0.62660979  0.66705369  0.77286323    -0.28600
C460        C  0.62147560  0.68924203  0.78295737    -0.03900
C461        C  0.63365232  0.70413744  0.75679501     0.04700
C462        C  0.64613348  0.68970974  0.73097046     0.02800
H463        H  0.60980886  0.69416040  0.80768351     0.07900
H464        H  0.65773939  0.69510099  0.70625905     0.06800
C465        C  0.73174788  0.51647232  0.53470844     0.86200
C466        C  0.74636766  0.50156845  0.56595511    -0.54100
C467        C  0.75836289  0.48731431  0.53876929     0.09100
C468        C  0.75499170  0.49005759  0.48182655     0.20000
C469        C  0.74545929  0.53010177  0.49961602    -0.54800
C470        C  0.75769376  0.51663526  0.47166351     0.09200
C471        C  0.72117150  0.49912083  0.50118894    -0.54300
C472        C  0.73297618  0.48559481  0.47289315     0.09800
H473        H  0.74783544  0.50294836  0.60611456     0.14300
H474        H  0.76454524  0.47848839  0.45989664     0.00000
H475        H  0.74599753  0.54906816  0.49827131     0.14600
H476        H  0.70538457  0.49827663  0.49843100     0.14400
C477        C  0.73994876  0.97874161  0.51510518     0.86200
C478        C  0.75096818  0.96293596  0.47889366    -0.54100
C479        C  0.76177480  0.97429239  0.44354184     0.09100
C480        C  0.76027499  0.00124082  0.44705310     0.20000
C481        C  0.75568400  0.99578900  0.53588579    -0.54800
C482        C  0.76717064  0.00684865  0.50068937     0.09200
C483        C  0.72785657  0.99510712  0.48204054    -0.54300
C484        C  0.73800162  0.00683501  0.44636320     0.09800
H485        H  0.75016210  0.94396838  0.48122950     0.14300
H486        H  0.76879841  0.00992683  0.41773089     0.00000
H487        H  0.75711479  0.00034561  0.57466426     0.14600
H488        H  0.71231327  0.99767531  0.48715332     0.14400
C489        C  0.69918208  0.54031550  0.64076939    -0.02200
C490        C  0.69154616  0.56101242  0.61978735     0.07500
C491        C  0.69528312  0.56621393  0.56932676    -0.02300
C492        C  0.70767567  0.55168556  0.54115234    -0.02300
C493        C  0.71701140  0.53183791  0.56369562     0.07600
C494        C  0.71014610  0.52493393  0.61151666    -0.02500
Br495      Br  0.70963944  0.49263443  0.63204401    -0.01000
Br496      Br  0.69485857  0.53265849  0.71027343    -0.01100
Br497      Br  0.70842131  0.55748954  0.47005836    -0.01100
Br498      Br  0.68196305  0.59219897  0.53743118    -0.01100
C499        C  0.69571099  0.94263002  0.56195503    -0.02200
C500        C  0.69787485  0.94352109  0.61381548     0.07500
C501        C  0.71493414  0.95294622  0.63455788    -0.02300
C502        C  0.72973219  0.96207326  0.60352212    -0.02300
C503        C  0.72667065  0.96423496  0.55095267     0.07600
C504        C  0.71015295  0.95216244  0.53071170    -0.02500
Br505      Br  0.70750774  0.94587071  0.46040106    -0.01000
Br506      Br  0.67266669  0.92813074  0.53382922    -0.01100
Br507      Br  0.75507512  0.96438308  0.63394929    -0.01100
Br508      Br  0.71817817  0.95240827  0.70624262    -0.01100
C509        C  0.61934115  0.76731788  0.73166573    -0.02200
C510        C  0.63443746  0.77940206  0.75649693     0.07500
C511        C  0.64894716  0.76674601  0.78242658    -0.02300
C512        C  0.64861967  0.74209999  0.78265206    -0.02300
C513        C  0.63369221  0.73000532  0.75730623     0.07600
C514        C  0.61890999  0.74264710  0.73232546    -0.02500
Br515      Br  0.59835057  0.72613978  0.69793455    -0.01000
Br516      Br  0.59966933  0.78453400  0.69512833    -0.01100
Br517      Br  0.66824740  0.72485646  0.81922668    -0.01100
Br518      Br  0.66882455  0.78321077  0.81943726    -0.01100
C519        C  0.72287618  0.44592720  0.44245184    -0.02200
C520        C  0.72428107  0.47020641  0.43407974     0.07500
C521        C  0.71427389  0.48029855  0.39306760    -0.02300
C522        C  0.70255477  0.46633338  0.36199038    -0.02300
C523        C  0.69890982  0.44266425  0.37474909     0.07600
C524        C  0.70943541  0.43240562  0.41494283    -0.02500
Br525      Br  0.70404089  0.40086662  0.43751800    -0.01000
Br526      Br  0.73876640  0.43130755  0.49302986    -0.01100
Br527      Br  0.69199279  0.47983134  0.30124021    -0.01100
Br528      Br  0.71594171  0.51351794  0.37983124    -0.01100
C529        C  0.71757621  0.06470686  0.39765079    -0.02200
C530        C  0.70328435  0.05701534  0.36294597     0.07500
C531        C  0.70033411  0.03259437  0.35782312    -0.02300
C532        C  0.71358958  0.01664478  0.37931987    -0.02300
C533        C  0.72758904  0.02432060  0.41438622     0.07600
C534        C  0.72780487  0.04822561  0.42713652    -0.02500
Br535      Br  0.73801468  0.05786453  0.49104004    -0.01000
Br536      Br  0.72407466  0.09735259  0.40554548    -0.01100
Br537      Br  0.71118861  0.98400031  0.36292506    -0.01100
Br538      Br  0.67628996  0.02022321  0.33053018    -0.01100
C539        C  0.61813877  0.23881971  0.32006030    -0.02200
C540        C  0.62980307  0.22687207  0.28564221     0.07500
C541        C  0.64069837  0.23953960  0.25016474    -0.02300
C542        C  0.64003944  0.26417060  0.24931189    -0.02300
C543        C  0.62851389  0.27621734  0.28411145     0.07600
C544        C  0.61751631  0.26346729  0.31943354    -0.02500
Br545      Br  0.60221244  0.27969104  0.36831850    -0.01000
Br546      Br  0.60322325  0.22126637  0.36841891    -0.01100
Br547      Br  0.65429098  0.28131174  0.19895354    -0.01100
Br548      Br  0.65624557  0.22306005  0.20213732    -0.01100
C549        C  0.78494473  0.54586160  0.45792645    -0.02200
C550        C  0.77307861  0.52747399  0.43896191     0.07500
C551        C  0.77647909  0.51955645  0.38966265    -0.02300
C552        C  0.79033452  0.53093202  0.35920130    -0.02300
C553        C  0.80098301  0.55018172  0.37737276     0.07600
C554        C  0.79846343  0.55738080  0.42696088    -0.02500
Br555      Br  0.81454522  0.58219227  0.45376809    -0.01000
Br556      Br  0.78503159  0.55353261  0.52820712    -0.01100
Br557      Br  0.79432130  0.52058193  0.29150744    -0.01100
Br558      Br  0.76282114  0.49311124  0.36205248    -0.01100
C559        C  0.78529749  0.95222489  0.32290973    -0.02200
C560        C  0.79725866  0.93411498  0.34135701     0.07500
C561        C  0.79856996  0.93005109  0.39300560    -0.02300
C562        C  0.78726038  0.94326466  0.42610257    -0.02300
C563        C  0.77469103  0.96125914  0.40799702     0.07600
C564        C  0.77433726  0.96602216  0.35590083    -0.02500
Br565      Br  0.75882932  0.99087060  0.32749522    -0.01000
Br566      Br  0.78329149  0.95743785  0.25166797    -0.01100
Br567      Br  0.79031384  0.93674987  0.49641864    -0.01100
Br568      Br  0.81691613  0.90722087  0.41888695    -0.01100
C569        C  0.86213385  0.72972857  0.27552967    -0.02200
C570        C  0.86048454  0.71548665  0.23305451     0.07500
C571        C  0.85729259  0.72575873  0.18576505    -0.02300
C572        C  0.85572895  0.75023990  0.18096091    -0.02300
C573        C  0.85745639  0.76452199  0.22341998     0.07600
C574        C  0.86070519  0.75421936  0.27072051    -0.02500
Br575      Br  0.86420147  0.77365427  0.32868331    -0.01000
Br576      Br  0.86711717  0.71571127  0.34009162    -0.01100
Br577      Br  0.85043771  0.76412036  0.11643039    -0.01100
Br578      Br  0.85437276  0.70621646  0.12777712    -0.01100
C579        C  0.79365083  0.47290808  0.54882643    -0.02200
C580        C  0.77370783  0.47174845  0.56288676     0.07500
C581        C  0.76857871  0.45588616  0.60178603    -0.02300
C582        C  0.78297263  0.44311459  0.62813520    -0.02300
C583        C  0.80268027  0.44496897  0.61469325     0.07600
C584        C  0.80789505  0.45946973  0.57430293    -0.02500
Br585      Br  0.83473604  0.46017564  0.55272450    -0.01000
Br586      Br  0.80254034  0.49285175  0.49572311    -0.01100
Br587      Br  0.77573897  0.42350802  0.68416500    -0.01100
Br588      Br  0.74179511  0.44942870  0.61712006    -0.01100
C589        C  0.79624475  0.01421744  0.55710910    -0.02200
C590        C  0.78484324  0.02159776  0.51556097     0.07500
C591        C  0.79037139  0.04310989  0.49183285    -0.02300
C592        C  0.80485638  0.05768872  0.51369865    -0.02300
C593        C  0.81389274  0.05135024  0.55931551     0.07600
C594        C  0.80930981  0.02949072  0.58093357    -0.02500
Br595      Br  0.81936891  0.02061604  0.64598541    -0.01000
Br596      Br  0.79709440  0.98187884  0.57742135    -0.01100
Br597      Br  0.81287284  0.08620153  0.48008567    -0.01100
Br598      Br  0.77994623  0.05315278  0.42816837    -0.01100
C599        C  0.86867229  0.23628533  0.66800678    -0.02200
C600        C  0.86219323  0.22346992  0.71003333     0.07500
C601        C  0.85649304  0.23559428  0.75317494    -0.02300
C602        C  0.85796663  0.26022603  0.75504038    -0.02300
C603        C  0.86481119  0.27300955  0.71342889     0.07600
C604        C  0.86990585  0.26096507  0.66966570    -0.02500
Br605      Br  0.87935993  0.27825564  0.61259564    -0.01000
Br606      Br  0.87664130  0.22001932  0.60874514    -0.01100
Br607      Br  0.85012126  0.27654147  0.81432574    -0.01100
Br608      Br  0.84574787  0.21848007  0.80896690    -0.01100
C609        C  0.96274645  0.05302825  0.87465472    -0.02200
C610        C  0.95623985  0.03286369  0.90030347     0.07500
C611        C  0.93671591  0.02561000  0.89490821    -0.02300
C612        C  0.92390423  0.03806020  0.86296711    -0.02300
C613        C  0.93053228  0.05795812  0.83621608     0.07600
C614        C  0.95000625  0.06548855  0.84266762    -0.02500
Br615      Br  0.95968768  0.09224692  0.80594706    -0.01000
Br616      Br  0.98937017  0.06332827  0.88269340    -0.01100
Br617      Br  0.89700023  0.02844320  0.85799004    -0.01100
Br618      Br  0.92733927  0.99923103  0.93316001    -0.01100
C619        C  0.92679250  0.92946568  0.05030419    -0.02200
C620        C  0.92383680  0.93121567  0.10192114     0.07500
C621        C  0.93563310  0.94622579  0.13048659    -0.02300
C622        C  0.95028465  0.95977037  0.10748726    -0.02300
C623        C  0.95373500  0.95780070  0.05537260     0.07600
C624        C  0.94180295  0.94230410  0.02708432    -0.02500
Br625      Br  0.94476657  0.93877440  0.95577918    -0.01000
Br626      Br  0.90930165  0.91046274  0.01071880    -0.01100
Br627      Br  0.96544125  0.98042721  0.14943312    -0.01100
Br628      Br  0.93213498  0.94751298  0.20199580    -0.01100
C629        C  0.96093702  0.45831755  0.87364836    -0.02200
C630        C  0.96020260  0.45683464  0.92652628     0.07500
C631        C  0.94432372  0.44498543  0.94906473    -0.02300
C632        C  0.93000348  0.43395409  0.91933295    -0.02300
C633        C  0.93103907  0.43511616  0.86690793     0.07600
C634        C  0.94636741  0.44761148  0.84424645    -0.02500
Br635      Br  0.94768009  0.44949518  0.77236437    -0.01000
Br636      Br  0.98207165  0.47428401  0.84001813    -0.01100
Br637      Br  0.90835345  0.41805034  0.95043619    -0.01100
Br638      Br  0.94099503  0.44533107  0.02058874    -0.01100
C639        C  0.92803633  0.54204191  0.09277765    -0.02200
C640        C  0.93142415  0.54846816  0.14266029     0.07500
C641        C  0.94878721  0.54182269  0.16686130    -0.02300
C642        C  0.96285700  0.52885004  0.14117334    -0.02300
C643        C  0.95980624  0.52291398  0.09073696     0.07600
C644        C  0.94223772  0.52935169  0.06671351    -0.02500
Br645      Br  0.93717884  0.51982601  0.99892565    -0.01000
Br646      Br  0.90382400  0.55048371  0.06054766    -0.01100
Br647      Br  0.98657002  0.52006783  0.17497532    -0.01100
Br648      Br  0.95342823  0.55104826  0.23503246    -0.01100
C649        C  0.30438151  0.05631459  0.41740581    -0.02200
C650        C  0.30152819  0.05882935  0.36561683     0.07500
C651        C  0.28538209  0.04793229  0.34274376    -0.02300
C652        C  0.27201818  0.03482277  0.37162292    -0.02300
C653        C  0.27459766  0.03266400  0.42375377     0.07600
C654        C  0.29097172  0.04345220  0.44636641    -0.02500
Br655      Br  0.29611580  0.03938115  0.51664606    -0.01000
Br656      Br  0.32727720  0.06963925  0.44844661    -0.01100
Br657      Br  0.24990783  0.02055563  0.33954833    -0.01100
Br658      Br  0.28121989  0.05175851  0.27192024    -0.01100
C659        C  0.34575646  0.27051843  0.26679281    -0.02200
C660        C  0.36314433  0.28210263  0.28061913     0.07500
C661        C  0.38013987  0.26880961  0.28942985    -0.02300
C662        C  0.37992130  0.24427699  0.28331885    -0.02300
C663        C  0.36258041  0.23265076  0.26902396     0.07600
C664        C  0.34545131  0.24593212  0.26123800    -0.02500
Br665      Br  0.32172552  0.23077103  0.23963239    -0.01000
Br666      Br  0.32253411  0.28839545  0.25226149    -0.01100
Br667      Br  0.40339026  0.22666145  0.29654621    -0.01100
Br668      Br  0.40363688  0.28413849  0.31215875    -0.01100
C669        C  0.27073456  0.45663448  0.44291537    -0.02200
C670        C  0.27654321  0.47959409  0.45601576     0.07500
C671        C  0.29299752  0.48955016  0.43187056    -0.02300
C672        C  0.30480745  0.47579856  0.40092892    -0.02300
C673        C  0.29895170  0.45290754  0.38782866     0.07600
C674        C  0.28123350  0.44403121  0.40681349    -0.02500
Br675      Br  0.27048543  0.41529496  0.38077166    -0.01000
Br676      Br  0.24924726  0.44131971  0.47584788    -0.01100
Br677      Br  0.32970022  0.48827148  0.38010343    -0.01100
Br678      Br  0.29876890  0.52271027  0.43660047    -0.01100
C679        C  0.04772165  0.52031293  0.14877890    -0.02200
C680        C  0.04518297  0.52366250  0.09648448     0.07500
C681        C  0.05692813  0.54082322  0.07205007    -0.02300
C682        C  0.06952781  0.55539825  0.09963568    -0.02300
C683        C  0.07128195  0.55261038  0.15159636     0.07600
C684        C  0.06057644  0.53486796  0.17594821    -0.02500
Br685      Br  0.06304929  0.53116130  0.24745408    -0.01000
Br686      Br  0.03421874  0.49583227  0.18488043    -0.01100
Br687      Br  0.08520736  0.57866590  0.06559149     0.04900
Br688      Br  0.05762723  0.54361233  0.00001447    -0.01100
C689        C  0.20070630  0.56185264  0.43031603    -0.02200
C690        C  0.20313877  0.55825089  0.37888556     0.07500
C691        C  0.21732387  0.54236676  0.36232914    -0.02300
C692        C  0.22982160  0.53113604  0.39694256    -0.02300
C693        C  0.22798598  0.53546245  0.44857109     0.07600
C694        C  0.21299381  0.55053429  0.46497619    -0.02500
Br695      Br  0.20769005  0.55415230  0.53514753    -0.01000
Br696      Br  0.17952504  0.58106318  0.45366829    -0.01100
Br697      Br  0.24975529  0.51065512  0.37249111    -0.01100
Br698      Br  0.21980971  0.53631662  0.29192146    -0.01100
C699        C  0.05365542  0.94172174  0.13620017    -0.02200
C700        C  0.07170237  0.93881933  0.11215175     0.07500
C701        C  0.07423371  0.94775346  0.06346780    -0.02300
C702        C  0.05896594  0.95991994  0.03934729    -0.02300
C703        C  0.04080729  0.96260644  0.06313121     0.07600
C704        C  0.03820134  0.95331013  0.11153115    -0.02500
Br705      Br  0.01313117  0.95508147  0.14297415    -0.01000
Br706      Br  0.05016692  0.93015355  0.20341829    -0.01100
Br707      Br  0.06321234  0.97354420  0.97413892    -0.01100
Br708      Br  0.09827987  0.94215464  0.02867367    -0.01100
C709        C  0.23147444  0.95040958  0.39893685    -0.02200
C710        C  0.22587720  0.97358007  0.41072167     0.07500
C711        C  0.20858345  0.98261369  0.38865264    -0.02300
C712        C  0.19591907  0.96793740  0.36161883    -0.02300
C713        C  0.20158695  0.94493470  0.34918651     0.07600
C714        C  0.21985316  0.93664121  0.36654068    -0.02500
Br715      Br  0.22939263  0.90654819  0.34526958    -0.01000
Br716      Br  0.25420766  0.93637404  0.42919923    -0.01100
Br717      Br  0.16979763  0.97897738  0.34792422    -0.01100
Br718      Br  0.20209929  0.01555333  0.39316821    -0.01100
C719        C  0.13530202  0.76148902  0.21843916    -0.02200
C720        C  0.13194304  0.77385940  0.26299797     0.07500
C721        C  0.12954182  0.76125333  0.30807133    -0.02300
C722        C  0.13098128  0.73659021  0.30879420    -0.02300
C723        C  0.13389295  0.72425204  0.26409798     0.07600
C724        C  0.13599669  0.73679753  0.21893694    -0.02500
Br725      Br  0.14068141  0.72012139  0.15786415    -0.01000
Br726      Br  0.13998845  0.77826345  0.15683913    -0.01100
Br727      Br  0.12868031  0.71965228  0.37102545    -0.01100
Br728      Br  0.12302407  0.77763593  0.36836271    -0.01100
C729        C  0.28942074  0.52742275  0.62833190    -0.02200
C730        C  0.27455616  0.53773305  0.59834338     0.07500
C731        C  0.27229566  0.56232986  0.60233306    -0.02300
C732        C  0.28772761  0.57642088  0.61952668    -0.02300
C733        C  0.30386596  0.56612915  0.64410828     0.07600
C734        C  0.30354936  0.54157846  0.65231094    -0.02500
Br735      Br  0.32153086  0.52714406  0.69904084    -0.01000
Br736      Br  0.29027398  0.49406180  0.63958229    -0.01100
Br737      Br  0.28653331  0.60957057  0.60509122    -0.01100
Br738      Br  0.24682386  0.57640867  0.60131985    -0.01100
C739        C  0.28867573  0.93722718  0.58704355    -0.02200
C740        C  0.30841229  0.94068439  0.57498689     0.07500
C741        C  0.31326829  0.95536245  0.53443188    -0.02300
C742        C  0.29866572  0.96823249  0.50897642    -0.02300
C743        C  0.27900709  0.96681087  0.52474022     0.07600
C744        C  0.27405606  0.94969016  0.56113425    -0.02500
Br745      Br  0.24708026  0.94223252  0.57410625    -0.01000
Br746      Br  0.28158757  0.91678733  0.64175601    -0.01100
Br747      Br  0.30627490  0.98712313  0.45264854    -0.01100
Br748      Br  0.34011588  0.95762830  0.51368804    -0.01100
C749        C  0.38786954  0.77023356  0.72509628    -0.02200
C750        C  0.37319686  0.78291665  0.74931080     0.07500
C751        C  0.35941266  0.77106089  0.77889908    -0.02300
C752        C  0.35993975  0.74646646  0.78316516    -0.02300
C753        C  0.37404657  0.73355512  0.75697397     0.07600
C754        C  0.38826513  0.74560636  0.72856836    -0.02500
Br755      Br  0.40777395  0.72866905  0.69197942    -0.01000
Br756      Br  0.40720909  0.78673813  0.68628187    -0.01100
Br757      Br  0.34194012  0.73064471  0.82709918    -0.01100
Br758      Br  0.33991355  0.78866779  0.81393284    -0.01100
C759        C  0.05113179  0.42470202  0.86870729    -0.02200
C760        C  0.07114136  0.43065673  0.87012331     0.07500
C761        C  0.07776905  0.44734853  0.90510829    -0.02300
C762        C  0.06441242  0.45870818  0.93651057    -0.02300
C763        C  0.04441424  0.45344443  0.93332370     0.07600
C764        C  0.03792651  0.43578887  0.90083393    -0.02500
Br765      Br  0.01083304  0.42668657  0.90073193    -0.01000
Br766      Br  0.04130538  0.40248212  0.82080134    -0.01100
Br767      Br  0.07351614  0.48062462  0.98581791    -0.01100
Br768      Br  0.10523472  0.45394682  0.91208123    -0.01100
C769        C  0.20262739  0.47607243  0.54741588    -0.02200
C770        C  0.22212653  0.47542874  0.56507442     0.07500
C771        C  0.22737846  0.45768543  0.59982266    -0.02300
C772        C  0.21314214  0.44266662  0.62039756    -0.02300
C773        C  0.19352129  0.44468569  0.60547736     0.07600
C774        C  0.18842798  0.46091123  0.56786217    -0.02500
Br775      Br  0.16189774  0.46183461  0.54341249    -0.01000
Br776      Br  0.19473509  0.49723363  0.49514988    -0.01100
Br777      Br  0.22047313  0.41989888  0.67071873    -0.01100
Br778      Br  0.25431048  0.45237615  0.61663212    -0.01100
C779        C  0.06905665  0.06044302  0.92046527    -0.02200
C780        C  0.07098788  0.06001969  0.86832234     0.07500
C781        C  0.05744508  0.04751295  0.83925659    -0.02300
C782        C  0.04209162  0.03514130  0.86221635    -0.02300
C783        C  0.04038342  0.03482965  0.91496141     0.07600
C784        C  0.05413790  0.04751733  0.94392194    -0.02500
Br785      Br  0.05394972  0.04606350  0.01601898    -0.01000
Br786      Br  0.08729852  0.07838942  0.95988199    -0.01100
Br787      Br  0.02321134  0.01957075  0.82005044    -0.01100
Br788      Br  0.05959343  0.04811985  0.76743324    -0.01100
C789        C  0.23150322  0.04465891  0.59121920    -0.02200
C790        C  0.22537768  0.02406547  0.56614566     0.07500
C791        C  0.20751853  0.01384792  0.58217844    -0.02300
C792        C  0.19383335  0.02724966  0.60843575    -0.02300
C793        C  0.19895350  0.04958680  0.62652243     0.07600
C794        C  0.21827555  0.05751575  0.62037362    -0.02500
Br795      Br  0.22714178  0.08530329  0.65457926    -0.01000
Br796      Br  0.25855031  0.05349566  0.59394974    -0.01100
Br797      Br  0.16772605  0.01506988  0.61618656    -0.01100
Br798      Br  0.20300519  0.98039786  0.57885293    -0.01100
C799        C  0.11661113  0.23371055  0.69299506    -0.02200
C800        C  0.13316250  0.22145460  0.71029372     0.07500
C801        C  0.14978328  0.23400367  0.72604303    -0.02300
C802        C  0.14982741  0.25867831  0.72470650    -0.02300
C803        C  0.13319237  0.27095752  0.70793481     0.07600
C804        C  0.11664947  0.25838483  0.69166560    -0.02500
Br805      Br  0.09419608  0.27496381  0.66610103    -0.01000
Br806      Br  0.09394683  0.21668235  0.67035543    -0.01100
Br807      Br  0.17231801  0.27559405  0.74876703    -0.01100
Br808      Br  0.17202758  0.21744458  0.75292093    -0.01100
C809        C  0.45305481  0.46118810  0.12600641    -0.02200
C810        C  0.45036549  0.47120659  0.07832825     0.07500
C811        C  0.43188154  0.47015632  0.05520899    -0.02300
C812        C  0.41628668  0.45863693  0.07927127    -0.02300
C813        C  0.41909062  0.44830927  0.12676306     0.07600
C814        C  0.43742080  0.45013291  0.15050726    -0.02500
Br815      Br  0.44101228  0.43831453  0.21759134    -0.01000
Br816      Br  0.47849321  0.46146868  0.15670250    -0.01100
Br817      Br  0.39131323  0.45625317  0.04635501    -0.01100
Br818      Br  0.42794493  0.48461824  0.99069804    -0.01100
C819        C  0.54848136  0.46108275  0.18925469    -0.02200
C820        C  0.56038484  0.44316034  0.17065229     0.07500
C821        C  0.56022430  0.43838759  0.11923611    -0.02300
C822        C  0.54799056  0.45113321  0.08653263    -0.02300
C823        C  0.53539701  0.46881222  0.10504368     0.07600
C824        C  0.53612377  0.47395329  0.15692452    -0.02500
Br825      Br  0.52030800  0.49826347  0.18591848    -0.01000
Br826      Br  0.54859480  0.46737650  0.26001147    -0.01100
Br827      Br  0.55006177  0.44471991  0.01592907    -0.01100
Br828      Br  0.57770145  0.41507650  0.09280131    -0.01100
C829        C  0.44413699  0.54885730  0.92344216    -0.02200
C830        C  0.46064586  0.53624272  0.90744624     0.07500
C831        C  0.46527241  0.53593018  0.85592262    -0.02300
C832        C  0.45389182  0.54871605  0.82141463    -0.02300
C833        C  0.43776462  0.56158699  0.83780767     0.07600
C834        C  0.43256249  0.56107437  0.88853403    -0.02500
Br835      Br  0.40898372  0.57634314  0.90993631    -0.01000
Br836      Br  0.43680949  0.54930559  0.99293148    -0.01100
Br837      Br  0.46084937  0.54952777  0.75171882    -0.01100
Br838      Br  0.48794917  0.51954983  0.83187748    -0.01100
C839        C  0.55012840  0.56899448  0.87791532    -0.02200
C840        C  0.56979130  0.56184101  0.87925273     0.07500
C841        C  0.57515188  0.54195892  0.90787446    -0.02300
C842        C  0.56090155  0.52921394  0.93439731    -0.02300
C843        C  0.54134295  0.53656219  0.93343987     0.07600
C844        C  0.53607586  0.55673848  0.90586844    -0.02500
Br845      Br  0.50949628  0.56768271  0.90602254    -0.01000
Br846      Br  0.54200315  0.59470247  0.83539699    -0.01100
Br847      Br  0.56832322  0.50250257  0.97447815    -0.01100
Br848      Br  0.60214677  0.53284191  0.91327496    -0.01100
C849        C  0.56082965  0.98043018  0.90991981    -0.02200
C850        C  0.54117212  0.97345241  0.91114255     0.07500
C851        C  0.53508020  0.95340420  0.88505586    -0.02300
C852        C  0.54854606  0.94062256  0.85673110    -0.02300
C853        C  0.56832185  0.94757978  0.85532837     0.07600
C854        C  0.57445063  0.96733746  0.88280409    -0.02500
Br855      Br  0.60170695  0.97560176  0.88691480    -0.01000
Br856      Br  0.56917391  0.00750460  0.94714295    -0.01100
Br857      Br  0.53952676  0.91418257  0.81845946    -0.01100
Br858      Br  0.50812039  0.94376162  0.88753439    -0.01100
C859        C  0.44250312  0.96878091  0.82987891    -0.02200
C860        C  0.42775351  0.95596140  0.85432100     0.07500
C861        C  0.42750174  0.95504547  0.90687755    -0.02300
C862        C  0.44193908  0.96671425  0.93492868    -0.02300
C863        C  0.45717222  0.97898887  0.91058709     0.07600
C864        C  0.45735566  0.97984692  0.85769553    -0.02500
Br865      Br  0.47871234  0.99436331  0.82216426    -0.01000
Br866      Br  0.44303862  0.97016947  0.75786852    -0.01100
Br867      Br  0.44003874  0.96639829  0.00686595    -0.01100
Br868      Br  0.40687289  0.93835381  0.94076461    -0.01100
C869        C  0.56570030  0.07745185  0.08985996    -0.02200
C870        C  0.57736706  0.06452739  0.12371747     0.07500
C871        C  0.57371282  0.04036392  0.13028880    -0.02300
C872        C  0.55900672  0.02914090  0.10213709    -0.02300
C873        C  0.54633686  0.04241711  0.07084307     0.07600
C874        C  0.54962003  0.06688657  0.06609788    -0.02500
Br875      Br  0.53155417  0.08703910  0.03049128    -0.01000
Br876      Br  0.57232555  0.10950202  0.07296135    -0.01100
Br877      Br  0.55737189  0.99533989  0.10549939    -0.01100
Br878      Br  0.58786836  0.02264934  0.18032820    -0.01100
C879        C  0.44151619  0.05088685  0.04905050    -0.02200
C880        C  0.45999537  0.04732994  0.07100400     0.07500
C881        C  0.46374442  0.05567462  0.11950097    -0.02300
C882        C  0.44907872  0.06759828  0.14579317    -0.02300
C883        C  0.43058538  0.07111919  0.12379455     0.07600
C884        C  0.42687834  0.06275999  0.07533731    -0.02500
Br885      Br  0.40170398  0.06775350  0.04480424    -0.01000
Br886      Br  0.43596042  0.03848515  0.98372424    -0.01100
Br887      Br  0.45414118  0.07867632  0.21237534    -0.01100
Br888      Br  0.48911274  0.05113522  0.14939142    -0.01100
loop_ 
_geom_bond_atom_site_label_1 
_geom_bond_atom_site_label_2 
_geom_bond_distance 
_geom_bond_site_symmetry_2 
_ccdc_geom_bond_type 
O1           Cu9   2.018   1_545  S
O1           C11   1.278       .  A
O2           Cu9   2.017   1_556  S
O2           C12   1.279       .  A
O3           Cu9   2.011   1_556  S
O3           C13   1.277       .  A
O4           Cu9   2.015   1_545  S
O4           C14   1.278       .  A
O5          Cu10   2.019   1_554  S
O5           C14   1.279       .  A
O6          Cu10   2.011       .  S
O6           C13   1.277   1_545  A
O7          Cu10   2.010       .  S
O7           C12   1.277   1_545  A
O8          Cu10   2.010   1_554  S
O8           C11   1.277       .  A
Cu9         Cu10   2.367   1_564  S
C11         C873   1.499       .  S
C12         C863   1.493       .  S
C13         C850   1.473       .  S
C14         C880   1.480       .  S
O15         Cu23   2.019       .  S
O15          C25   1.278       .  A
O16         Cu23   2.001   1_556  S
O16          C26   1.275       .  A
O17         Cu23   2.014   1_556  S
O17          C27   1.279       .  A
O18         Cu23   2.023       .  S
O18          C28   1.278       .  A
O19         Cu24   2.006   1_554  S
O19          C28   1.276       .  A
O20         Cu24   1.998       .  S
O20          C27   1.276       .  A
O21         Cu24   2.030       .  S
O21          C26   1.280       .  A
O22         Cu24   2.015   1_554  S
O22          C25   1.278       .  A
Cu23        Cu24   2.367   1_554  S
C25         C810   1.479       .  S
C26         C843   1.478       .  S
C27         C830   1.485       .  S
C28         C823   1.504       .  S
N29          N30   1.322       .  A
N29          C33   1.346       .  A
N29         Cu37   2.073       .  S
N30          C31   1.346       .  A
N30         Cu36   2.078       .  S
C31          C32   1.383       .  A
C31          H34   1.082       .  S
C32         C780   1.478       .  S
C32          C33   1.382       .  A
C33          H35   1.082       .  S
Cu36         N39   2.078       .  S
Cu37         N47   2.073       .  S
Cu38         N40   2.083       .  S
Cu38         N46   2.084       .  S
N39          N40   1.322       .  A
N39          C43   1.345       .  A
N40          C41   1.346       .  A
C41          C42   1.387       .  A
C41          H44   1.082       .  S
C42         C793   1.490       .  S
C42          C43   1.387       .  A
C43          H45   1.082       .  S
N46          N47   1.323       .  A
N46          C50   1.347       .  A
N47          C48   1.345       .  A
C48          C49   1.382       .  A
C48          H51   1.082       .  S
C49         C800   1.480       .  S
C49          C50   1.385       .  A
C50          H52   1.082       .  S
N53          N54   1.322       .  A
N53          C57   1.346       .  A
N53         Cu61   2.079       .  S
N54          C55   1.347       .  A
N54         Cu60   2.087       .  S
C55          C56   1.387       .  A
C55          H58   1.082       .  S
C56         C760   1.489       .  S
C56          C57   1.386       .  A
C57          H59   1.082       .  S
Cu60         N63   2.087       .  S
Cu61         N71   2.079       .  S
Cu62         N64   2.083       .  S
Cu62         N70   2.083       .  S
N63          N64   1.324       .  A
N63          C67   1.347       .  A
N64          C65   1.347       .  A
C65          C66   1.384       .  A
C65          H68   1.082       .  S
C66         C773   1.484       .  S
C66          C67   1.385       .  A
C67          H69   1.082       .  S
N70          N71   1.323       .  A
N70          C74   1.348       .  A
N71          C72   1.345       .  A
C72          C73   1.383       .  A
C72          H75   1.082       .  S
C73         C803   1.482       .  S
C73          C74   1.385       .  A
C74          H76   1.082       .  S
N77          N78   1.322       .  A
N77          C81   1.344       .  A
N77         Cu85   2.070       .  S
N78          C79   1.349       .  A
N78         Cu84   2.089       .  S
C79          C80   1.388       .  A
C79          H82   1.082       .  S
C80         C860   1.485       .  S
C80          C81   1.382       .  A
C81          H83   1.082       .  S
Cu84         N87   2.090       .  S
Cu85         N95   2.070       .  S
Cu86         N88   2.084       .  S
Cu86         N94   2.083       .  S
N87          N88   1.324       .  A
N87          C91   1.347       .  A
N88          C89   1.348       .  A
C89          C90   1.385       .  A
C89          H92   1.082       .  S
C90         C740   1.485       .  S
C90          C91   1.385       .  A
C91          H93   1.082       .  S
N94          N95   1.323       .  A
N94          C98   1.347       .  A
N95          C96   1.345       .  A
C96          C97   1.381       .  A
C96          H99   1.082       .  S
C97         C750   1.476       .  S
C97          C98   1.383       .  A
C98         H100   1.082       .  S
N101        N102   1.322       .  A
N101        C105   1.342       .  A
N101       Cu109   2.062       .  S
N102        C103   1.346       .  A
N102       Cu108   2.074       .  S
C103        C104   1.383       .  A
C103        H106   1.082       .  S
C104        C833   1.474       .  S
C104        C105   1.380       .  A
C105        H107   1.082       .  S
Cu108       N111   2.073       .  S
Cu109       N119   2.062       .  S
Cu110       N112   2.094       .  S
Cu110       N118   2.094       .  S
N111        N112   1.321       .  A
N111        C115   1.344       .  A
N112        C113   1.348       .  A
C113        C114   1.394       .  A
C113        H116   1.081       .  S
C114        C733   1.500       .  S
C114        C115   1.388       .  A
C115        H117   1.081       .  S
N118        N119   1.322       .  A
N118        C122   1.347       .  A
N119        C120   1.344       .  A
C120        C121   1.382       .  A
C120        H123   1.082       .  S
C121        C753   1.485       .  S
C121        C122   1.388       .  A
C122        H124   1.082       .  S
N125        N126   1.323       .  A
N125        C129   1.346       .  A
N125       Cu133   2.077       .  S
N126        C127   1.349       .  A
N126       Cu132   2.090       .  S
C127        C128   1.386       .  A
C127        H130   1.082       .  S
C128        C700   1.483       .  S
C128        C129   1.382       .  A
C129        H131   1.082       .  S
Cu132       N135   2.090       .  S
Cu133       N143   2.077       .  S
Cu134       N136   2.093       .  S
Cu134       N142   2.093       .  S
N135        N136   1.323       .  A
N135        C139   1.346       .  A
N136        C137   1.349       .  A
C137        C138   1.390       .  A
C137        H140   1.082       .  S
C138        C713   1.500       .  S
C138        C139   1.390       .  A
C139        H141   1.082       .  S
N142        N143   1.323       .  A
N142        C146   1.348       .  A
N143        C144   1.346       .  A
C144        C145   1.385       .  A
C144        H147   1.082       .  S
C145        C720   1.488       .  S
C145        C146   1.387       .  A
C146        H148   1.082       .  S
N149        N150   1.323       .  A
N149        C153   1.349       .  A
N149       Cu157   2.095       .  S
N150        C151   1.344       .  A
N150       Cu156   2.066       .  S
C151        C152   1.381       .  A
C151        H154   1.082       .  S
C152        C683   1.484       .  S
C152        C153   1.389       .  A
C153        H155   1.082       .  S
Cu156       N159   2.066       .  S
Cu157       N167   2.095       .  S
Cu158       N160   2.086       .  S
Cu158       N166   2.087       .  S
N159        N160   1.322       .  A
N159        C163   1.345       .  A
N160        C161   1.346       .  A
C161        C162   1.386       .  A
C161        H164   1.082       .  S
C162        C690   1.480       .  S
C162        C163   1.381       .  A
C163        H165   1.082       .  S
N166        N167   1.324       .  A
N166        C170   1.348       .  A
N167        C168   1.348       .  A
C168        C169   1.385       .  A
C168        H171   1.082       .  S
C169        C723   1.486       .  S
C169        C170   1.384       .  A
C170        H172   1.082       .  S
C173        C174   1.547       .  S
C173        C179   1.538       .  S
C173        C177   1.540       .  S
C173        C730   1.559       .  S
C174        H181   1.081       .  S
C174        C175   1.363       .  D
C175        C176   1.540       .  S
C175        C693   1.496       .  S
C176        C180   1.550       .  S
C176        C178   1.549       .  S
C176        H182   1.108       .  S
C177        H183   1.086       .  S
C177        C178   1.375       .  D
C178        C770   1.506       .  S
C179        H184   1.085       .  S
C179        C180   1.369       .  D
C180        C670   1.504       .  S
N185        N186   1.324       .  A
N185        C189   1.349       .  A
N185       Cu193   2.092       .  S
N186        C187   1.347       .  A
N186       Cu192   2.086       .  S
C187        C188   1.383       .  A
C187        H190   1.082       .  S
C188        C883   1.483       .  S
C188        C189   1.385       .  A
C189        H191   1.082       .  S
Cu192       N195   2.086       .  S
Cu193       N203   2.092       .  S
Cu194       N196   2.087       .  S
Cu194       N202   2.088       .  S
N195        N196   1.324       .  A
N195        C199   1.349       .  A
N196        C197   1.347       .  A
C197        C198   1.384       .  A
C197        H200   1.082       .  S
C198        C650   1.485       .  S
C198        C199   1.385       .  A
C199        H201   1.082       .  S
N202        N203   1.323       .  A
N202        C206   1.348       .  A
N203        C204   1.348       .  A
C204        C205   1.388       .  A
C204        H207   1.082       .  S
C205        C663   1.493       .  S
C205        C206   1.387       .  A
C206        H208   1.082       .  S
N209        N210   1.322       .  A
N209        C213   1.345       .  A
N209       Cu217   2.079       .  S
N210        C211   1.348       .  A
N210       Cu216   2.082       .  S
C211        C212   1.385       .  A
C211        H214   1.082       .  S
C212        C813   1.483       .  S
C212        C213   1.384       .  A
C213        H215   1.082       .  S
Cu216       N219   2.082       .  S
Cu217       N227   2.079       .  S
Cu218       N220   2.093       .  S
Cu218       N226   2.093       .  S
N219        N220   1.323       .  A
N219        C223   1.346       .  A
N220        C221   1.348       .  A
C221        C222   1.389       .  A
C221        H224   1.082       .  S
C222        C673   1.493       .  S
C222        C223   1.387       .  A
C223        H225   1.082       .  S
N226        N227   1.323       .  A
N226        C230   1.350       .  A
N227        C228   1.346       .  A
C228        C229   1.384       .  A
C228        H231   1.082       .  S
C229        C660   1.490       .  S
C229        C230   1.389       .  A
C230        H232   1.082       .  S
C233        C234   1.529   1_545  S
C233        C239   1.536   1_545  S
C233        C237   1.545       .  S
C233        C790   1.554       .  S
C234        H241   1.086       .  S
C234        C235   1.371       .  D
C235        C236   1.555       .  S
C235        C743   1.507       .  S
C236        C240   1.552       .  S
C236        C238   1.549   1_565  S
C236        H242   1.107       .  S
C237        H243   1.085       .  S
C237        C238   1.370       .  D
C238        C653   1.498       .  S
C239        H244   1.082       .  S
C239        C240   1.364       .  D
C240        C710   1.509       .  S
O245       Cu253   2.040       .  S
O245        C255   1.281       .  A
O246       Cu253   2.034   1_656  S
O246        C256   1.282       .  A
O247       Cu253   2.008       .  S
O247        C257   1.276   1_554  A
O248       Cu253   2.015   1_655  S
O248        C258   1.278       .  A
O249       Cu254   2.006   1_654  S
O249        C258   1.277       .  A
O250       Cu254   2.027       .  S
O250        C257   1.280       .  A
O251       Cu254   1.999   1_655  S
O251        C256   1.275       .  A
O252       Cu254   1.997   1_554  S
O252        C255   1.275       .  A
Cu253      Cu254   2.366   1_554  S
C255        C680   1.506       .  S
C256        C630   1.496       .  S
C257        C763   1.478       .  S
C258        C643   1.478       .  S
O259       Cu267   2.010   1_456  S
O259        C269   1.278       .  A
O260       Cu267   2.014   1_565  S
O260        C270   1.277       .  A
O261       Cu267   2.034   1_465  S
O261        C271   1.281       .  A
O262       Cu267   2.019   1_556  S
O262        C272   1.278       .  A
O263       Cu268   2.028   1_545  S
O263        C272   1.279       .  A
O264       Cu268   2.006   1_455  S
O264        C271   1.276   1_556  A
O265       Cu268   2.007       .  S
O265        C270   1.277   1_556  A
O266       Cu268   2.008   1_445  S
O266        C269   1.277       .  A
Cu267      Cu268   2.365   1_544  S
C269        C783   1.492       .  S
C270        C623   1.499       .  S
C271        C703   1.485       .  S
C272        C610   1.484       .  S
N273        N274   1.323       .  A
N273        C277   1.348       .  A
N273       Cu281   2.088       .  S
N274        C275   1.349       .  A
N274       Cu280   2.092       .  S
C275        C276   1.388       .  A
C275        H278   1.082       .  S
C276        C613   1.492       .  S
C276        C277   1.387       .  A
C277        H279   1.082       .  S
Cu280       N283   2.091       .  S
Cu281       N291   2.089       .  S
Cu282       N284   2.088       .  S
Cu282       N290   2.089       .  S
N283        N284   1.323       .  A
N283        C287   1.345       .  A
N284        C285   1.349       .  A
C285        C286   1.388       .  A
C285        H288   1.082       .  S
C286        C593   1.496       .  S
C286        C287   1.389       .  A
C287        H289   1.082       .  S
N290        N291   1.324       .  A
N290        C294   1.349       .  A
N291        C292   1.347       .  A
C292        C293   1.385       .  A
C292        H295   1.082       .  S
C293        C600   1.487       .  S
C293        C294   1.386       .  A
C294        H296   1.082       .  S
N297        N298   1.325       .  A
N297        C301   1.349       .  A
N297       Cu305   2.095       .  S
N298        C299   1.348       .  A
N298       Cu304   2.090       .  S
C299        C300   1.384       .  A
C299        H302   1.082       .  S
C300        C633   1.486       .  S
C300        C301   1.385       .  A
C301        H303   1.082       .  S
Cu304       N307   2.090       .  S
Cu305       N315   2.095       .  S
Cu306       N308   2.084       .  S
Cu306       N314   2.084       .  S
N307        N308   1.323       .  A
N307        C311   1.349       .  A
N308        C309   1.347       .  A
C309        C310   1.384       .  A
C309        H312   1.082       .  S
C310        C583   1.487       .  S
C310        C311   1.387       .  A
C311        H313   1.082       .  S
N314        N315   1.323       .  A
N314        C318   1.348       .  A
N315        C316   1.349       .  A
C316        C317   1.387       .  A
C316        H319   1.082       .  S
C317        C603   1.487       .  S
C317        C318   1.384       .  A
C318        H320   1.082       .  S
N321        N322   1.321       .  A
N321        C325   1.346       .  A
N321       Cu329   2.073       .  S
N322        C323   1.342       .  A
N322       Cu328   2.057       .  S
C323        C324   1.380       .  A
C323        H326   1.082       .  S
C324        C620   1.476       .  S
C324        C325   1.384       .  A
C325        H327   1.082       .  S
Cu328       N331   2.057       .  S
Cu329       N339   2.074       .  S
Cu330       N332   2.079       .  S
Cu330       N338   2.079       .  S
N331        N332   1.321       .  A
N331        C335   1.342       .  A
N332        C333   1.346       .  A
C333        C334   1.386       .  A
C333        H336   1.082       .  S
C334        C560   1.479       .  S
C334        C335   1.380       .  A
C335        H337   1.082       .  S
N338        N339   1.324       .  A
N338        C342   1.346       .  A
N339        C340   1.344       .  A
C340        C341   1.381       .  A
C340        H343   1.082       .  S
C341        C573   1.476       .  S
C341        C342   1.383       .  A
C342        H344   1.082       .  S
N345        N346   1.323       .  A
N345        C349   1.346       .  A
N345       Cu353   2.074       .  S
N346        C347   1.344       .  A
N346       Cu352   2.070       .  S
C347        C348   1.379       .  A
C347        H350   1.082       .  S
C348        C640   1.471       .  S
C348        C349   1.381       .  A
C349        H351   1.082       .  S
Cu352       N355   2.070       .  S
Cu353       N363   2.074       .  S
Cu354       N356   2.071       .  S
Cu354       N362   2.071       .  S
N355        N356   1.322       .  A
N355        C359   1.345       .  A
N356        C357   1.344       .  A
C357        C358   1.383       .  A
C357        H360   1.082       .  S
C358        C553   1.480       .  S
C358        C359   1.383       .  A
C359        H361   1.082       .  S
N362        N363   1.323       .  A
N362        C366   1.344       .  A
N363        C364   1.345       .  A
C364        C365   1.382       .  A
C364        H367   1.082       .  S
C365        C570   1.474       .  S
C365        C366   1.381       .  A
C366        H368   1.082       .  S
N369        N370   1.322       .  A
N369        C373   1.341       .  A
N369       Cu377   2.063       .  S
N370        C371   1.350       .  A
N370       Cu376   2.093       .  S
C371        C372   1.391       .  A
C371        H374   1.082       .  S
C372        C870   1.490       .  S
C372        C373   1.383       .  A
C373        H375   1.082       .  S
Cu376       N379   2.091       .  S
Cu377       N387   2.063       .  S
Cu378       N380   2.074       .  S
Cu378       N386   2.074       .  S
N379        N380   1.321       .  A
N379        C383   1.344       .  A
N380        C381   1.345       .  A
C381        C382   1.389       .  A
C381        H384   1.080       .  S
C382        C530   1.499       .  S
C382        C383   1.392       .  A
C383        H385   1.081       .  S
N386        N387   1.321       .  A
N386        C390   1.346       .  A
N387        C388   1.344       .  A
C388        C389   1.380       .  A
C388        H391   1.082       .  S
C389        C540   1.474       .  S
C389        C390   1.383       .  A
C390        H392   1.082       .  S
N393        N394   1.322       .  A
N393        C397   1.346       .  A
N393       Cu401   2.081       .  S
N394        C395   1.345       .  A
N394       Cu400   2.073       .  S
C395        C396   1.384       .  A
C395        H398   1.082       .  S
C396        C820   1.484       .  S
C396        C397   1.386       .  A
C397        H399   1.082       .  S
Cu400       N403   2.073       .  S
Cu401       N411   2.081       .  S
Cu402       N404   2.073       .  S
Cu402       N410   2.075       .  S
N403        N404   1.320       .  A
N403        C407   1.342       .  A
N404        C405   1.346       .  A
C405        C406   1.388       .  A
C405        H408   1.081       .  S
C406        C523   1.491       .  S
C406        C407   1.387       .  A
C407        H409   1.082       .  S
N410        N411   1.324       .  A
N410        C414   1.345       .  A
N411        C412   1.346       .  A
C412        C413   1.383       .  A
C412        H415   1.082       .  S
C413        C543   1.479       .  S
C413        C414   1.382       .  A
C414        H416   1.082       .  S
N417        N418   1.322       .  A
N417        C421   1.345       .  A
N417       Cu425   2.070       .  S
N418        C419   1.345       .  A
N418       Cu424   2.081       .  S
C419        C420   1.386       .  A
C419        H422   1.082       .  S
C420        C853   1.484       .  S
C420        C421   1.384       .  A
C421        H423   1.082       .  S
Cu424       N427   2.081       .  S
Cu425       N435   2.069       .  S
Cu426       N428   2.078       .  S
Cu426       N434   2.078       .  S
N427        N428   1.324       .  A
N427        C431   1.348       .  A
N428        C429   1.345       .  A
C429        C430   1.381       .  A
C429        H432   1.082       .  S
C430        C500   1.476       .  S
C430        C431   1.382       .  A
C431        H433   1.082       .  S
N434        N435   1.322       .  A
N434        C438   1.346       .  A
N435        C436   1.345       .  A
C436        C437   1.381       .  A
C436        H439   1.082       .  S
C437        C510   1.477       .  S
C437        C438   1.384       .  A
C438        H440   1.082       .  S
N441        N442   1.321       .  A
N441        C445   1.345       .  A
N441       Cu449   2.076       .  S
N442        C443   1.345       .  A
N442       Cu448   2.069       .  S
C443        C444   1.383       .  A
C443        H446   1.082       .  S
C444        C840   1.483       .  S
C444        C445   1.386       .  A
C445        H447   1.082       .  S
Cu448       N451   2.069       .  S
Cu449       N459   2.077       .  S
Cu450       N452   2.084       .  S
Cu450       N458   2.084       .  S
N451        N452   1.322       .  A
N451        C455   1.342       .  A
N452        C453   1.349       .  A
C453        C454   1.388       .  A
C453        H456   1.082       .  S
C454        C490   1.486       .  S
C454        C455   1.383       .  A
C455        H457   1.082       .  S
N458        N459   1.324       .  A
N458        C462   1.346       .  A
N459        C460   1.346       .  A
C460        C461   1.381       .  A
C460        H463   1.082       .  S
C461        C513   1.477       .  S
C461        C462   1.383       .  A
C462        H464   1.082       .  S
C465        C466   1.555       .  S
C465        C471   1.523       .  S
C465        C469   1.540       .  S
C465        C493   1.556       .  S
C466        H473   1.084       .  S
C466        C467   1.376       .  D
C467        C468   1.550       .  S
C467        C580   1.518       .  S
C468        C472   1.550       .  S
C468        C470   1.551       .  S
C468        H474   1.107       .  S
C469        H475   1.084       .  S
C469        C470   1.371       .  D
C470        C550   1.505       .  S
C471        H476   1.087       .  S
C471        C472   1.360       .  D
C472        C520   1.489       .  S
C477        C478   1.535       .  S
C477        C483   1.527       .  S
C477        C481   1.556       .  S
C477        C503   1.560       .  S
C478        H485   1.086       .  S
C478        C479   1.366       .  D
C479        C480   1.546   1_565  S
C479        C563   1.508       .  S
C480        C484   1.563       .  S
C480        C482   1.547       .  S
C480        H486   1.097       .  S
C481        H487   1.078   1_565  S
C481        C482   1.381   1_565  D
C482        C590   1.528       .  S
C483        H488   1.087       .  S
C483        C484   1.358   1_565  D
C484        C533   1.492       .  S
C489        C490   1.406       .  A
C489        C494   1.405       .  A
C489       Br496   1.935       .  S
C490        C491   1.408       .  A
C491        C492   1.416       .  A
C491       Br498   1.936       .  S
C492        C493   1.431       .  A
C492       Br497   1.933       .  S
C493        C494   1.421       .  A
C494       Br495   1.921       .  S
C499        C500   1.399       .  A
C499        C504   1.407       .  A
C499       Br506   1.936       .  S
C500        C501   1.402       .  A
C501        C502   1.413       .  A
C501       Br508   1.934       .  S
C502        C503   1.428       .  A
C502       Br507   1.922       .  S
C503        C504   1.432       .  A
C504       Br505   1.930       .  S
C509        C510   1.411       .  A
C509        C514   1.409       .  A
C509       Br516   1.930       .  S
C510        C511   1.409       .  A
C511        C512   1.407       .  A
C511       Br518   1.930       .  S
C512        C513   1.409       .  A
C512       Br517   1.929       .  S
C513        C514   1.410       .  A
C514       Br515   1.930       .  S
C519        C520   1.406       .  A
C519        C524   1.411       .  A
C519       Br526   1.922       .  S
C520        C521   1.413       .  A
C521        C522   1.406       .  A
C521       Br528   1.930       .  S
C522        C523   1.414       .  A
C522       Br527   1.934       .  S
C523        C524   1.418       .  A
C524       Br525   1.931       .  S
C529        C530   1.420       .  A
C529        C534   1.410       .  A
C529       Br536   1.929       .  S
C530        C531   1.416       .  A
C531        C532   1.407       .  A
C531       Br538   1.936       .  S
C532        C533   1.412       .  A
C532       Br537   1.925   1_545  S
C533        C534   1.410       .  A
C534       Br535   1.931       .  S
C539        C540   1.407       .  A
C539        C544   1.408       .  A
C539       Br546   1.930       .  S
C540        C541   1.408       .  A
C541        C542   1.407       .  A
C541       Br548   1.930       .  S
C542        C543   1.411       .  A
C542       Br547   1.931       .  S
C543        C544   1.411       .  A
C544       Br545   1.929       .  S
C549        C550   1.423       .  A
C549        C554   1.407       .  A
C549       Br556   1.938       .  S
C550        C551   1.421       .  A
C551        C552   1.411       .  A
C551       Br558   1.926       .  S
C552        C553   1.407       .  A
C552       Br557   1.935       .  S
C553        C554   1.407       .  A
C554       Br555   1.935       .  S
C559        C560   1.407       .  A
C559        C564   1.411       .  A
C559       Br566   1.935       .  S
C560        C561   1.405       .  A
C561        C562   1.408       .  A
C561       Br568   1.937       .  S
C562        C563   1.424       .  A
C562       Br567   1.929       .  S
C563        C564   1.421       .  A
C564       Br565   1.925       .  S
C569        C570   1.409       .  A
C569        C574   1.407       .  A
C569       Br576   1.930       .  S
C570        C571   1.409       .  A
C571        C572   1.407       .  A
C571       Br578   1.930       .  S
C572        C573   1.410       .  A
C572       Br577   1.930       .  S
C573        C574   1.411       .  A
C574       Br575   1.931       .  S
C579        C580   1.424       .  A
C579        C584   1.414       .  A
C579       Br586   1.918       .  S
C580        C581   1.421       .  A
C581        C582   1.412       .  A
C581       Br588   1.921       .  S
C582        C583   1.406       .  A
C582       Br587   1.933       .  S
C583        C584   1.405       .  A
C584       Br585   1.935       .  S
C589        C590   1.420       .  A
C589        C594   1.404       .  A
C589       Br596   1.922   1_545  S
C590        C591   1.430       .  A
C591        C592   1.422       .  A
C591       Br598   1.931       .  S
C592        C593   1.413       .  A
C592       Br597   1.935       .  S
C593        C594   1.408       .  A
C594       Br595   1.936       .  S
C599        C600   1.412       .  A
C599        C604   1.413       .  A
C599       Br606   1.930       .  S
C600        C601   1.411       .  A
C601        C602   1.411       .  A
C601       Br608   1.930       .  S
C602        C603   1.411       .  A
C602       Br607   1.929       .  S
C603        C604   1.411       .  A
C604       Br605   1.929       .  S
C609        C610   1.409       .  A
C609        C614   1.411       .  A
C609       Br616   1.930       .  S
C610        C611   1.409       .  A
C611        C612   1.413       .  A
C611       Br618   1.927   1_545  S
C612        C613   1.414       .  A
C612       Br617   1.930       .  S
C613        C614   1.414       .  A
C614       Br615   1.930       .  S
C619        C620   1.404       .  A
C619        C624   1.408       .  A
C619       Br626   1.935       .  S
C620        C621   1.406       .  A
C621        C622   1.409       .  A
C621       Br628   1.936       .  S
C622        C623   1.424       .  A
C622       Br627   1.934       .  S
C623        C624   1.425       .  A
C624       Br625   1.936   1_554  S
C629        C630   1.421       .  A
C629        C634   1.411       .  A
C629       Br636   1.935       .  S
C630        C631   1.417       .  A
C631        C632   1.412       .  A
C631       Br638   1.933   1_556  S
C632        C633   1.409       .  A
C632       Br637   1.930       .  S
C633        C634   1.408       .  A
C634       Br635   1.932       .  S
C639        C640   1.408       .  A
C639        C644   1.409       .  A
C639       Br646   1.929       .  S
C640        C641   1.405       .  A
C641        C642   1.406       .  A
C641       Br648   1.931       .  S
C642        C643   1.411       .  A
C642       Br647   1.924       .  S
C643        C644   1.412       .  A
C644       Br645   1.931   1_554  S
C649        C650   1.408       .  A
C649        C654   1.409       .  A
C649       Br656   1.932       .  S
C650        C651   1.410       .  A
C651        C652   1.413       .  A
C651       Br658   1.930       .  S
C652        C653   1.412       .  A
C652       Br657   1.923       .  S
C653        C654   1.416       .  A
C654       Br655   1.928       .  S
C659        C660   1.412       .  A
C659        C664   1.413       .  A
C659       Br666   1.931       .  S
C660        C661   1.411       .  A
C661        C662   1.412       .  A
C661       Br668   1.931       .  S
C662        C663   1.414       .  A
C662       Br667   1.931       .  S
C663        C664   1.414       .  A
C664       Br665   1.931       .  S
C669        C670   1.416       .  A
C669        C674   1.413       .  A
C669       Br676   1.928       .  S
C670        C671   1.421       .  A
C671        C672   1.409       .  A
C671       Br678   1.939       .  S
C672        C673   1.413       .  A
C672       Br677   1.934       .  S
C673        C674   1.413       .  A
C674       Br675   1.932       .  S
C679        C680   1.423       .  A
C679        C684   1.414       .  A
C679       Br686   1.932       .  S
C680        C681   1.425       .  A
C681        C682   1.410       .  A
C681       Br688   1.938       .  S
C682        C683   1.406       .  A
C682       Br687   1.934       .  S
C683        C684   1.409       .  A
C684       Br685   1.934       .  S
C689        C690   1.407       .  A
C689        C694   1.406       .  A
C689       Br696   1.934       .  S
C690        C691   1.409       .  A
C691        C692   1.412       .  A
C691       Br698   1.931       .  S
C692        C693   1.415       .  A
C692       Br697   1.924       .  S
C693        C694   1.418       .  A
C694       Br695   1.931       .  S
C699        C700   1.411       .  A
C699        C704   1.410       .  A
C699       Br706   1.931       .  S
C700        C701   1.409       .  A
C701        C702   1.410       .  A
C701       Br708   1.930       .  S
C702        C703   1.413       .  A
C702       Br707   1.931   1_554  S
C703        C704   1.410       .  A
C704       Br705   1.924       .  S
C709        C710   1.417       .  A
C709        C714   1.417       .  A
C709       Br716   1.928       .  S
C710        C711   1.420       .  A
C711        C712   1.408       .  A
C711       Br718   1.939   1_565  S
C712        C713   1.414       .  A
C712       Br717   1.935       .  S
C713        C714   1.416       .  A
C714       Br715   1.932       .  S
C719        C720   1.413       .  A
C719        C724   1.411       .  A
C719       Br726   1.931       .  S
C720        C721   1.412       .  A
C721        C722   1.412       .  A
C721       Br728   1.930       .  S
C722        C723   1.411       .  A
C722       Br727   1.929       .  S
C723        C724   1.410       .  A
C724       Br725   1.930       .  S
C729        C730   1.421       .  A
C729        C734   1.416       .  A
C729       Br736   1.927       .  S
C730        C731   1.418       .  A
C731        C732   1.407       .  A
C731       Br738   1.926       .  S
C732        C733   1.413       .  A
C732       Br737   1.931       .  S
C733        C734   1.417       .  A
C734       Br735   1.935       .  S
C739        C740   1.408       .  A
C739        C744   1.409       .  A
C739       Br746   1.931       .  S
C740        C741   1.409       .  A
C741        C742   1.414       .  A
C741       Br748   1.932       .  S
C742        C743   1.419       .  A
C742       Br747   1.923       .  S
C743        C744   1.418       .  A
C744       Br745   1.932       .  S
C749        C750   1.407       .  A
C749        C754   1.409       .  A
C749       Br756   1.931       .  S
C750        C751   1.407       .  A
C751        C752   1.409       .  A
C751       Br758   1.929       .  S
C752        C753   1.412       .  A
C752       Br757   1.930       .  S
C753        C754   1.415       .  A
C754       Br755   1.931       .  S
C759        C760   1.415       .  A
C759        C764   1.409       .  A
C759       Br766   1.931       .  S
C760        C761   1.415       .  A
C761        C762   1.411       .  A
C761       Br768   1.930       .  S
C762        C763   1.407       .  A
C762       Br767   1.928       .  S
C763        C764   1.408       .  A
C764       Br765   1.930       .  S
C769        C770   1.418       .  A
C769        C774   1.412       .  A
C769       Br776   1.920       .  S
C770        C771   1.417       .  A
C771        C772   1.411       .  A
C771       Br778   1.925       .  S
C772        C773   1.408       .  A
C772       Br777   1.932       .  S
C773        C774   1.407       .  A
C774       Br775   1.933       .  S
C779        C780   1.406       .  A
C779        C784   1.409       .  A
C779       Br786   1.932       .  S
C780        C781   1.407       .  A
C781        C782   1.409       .  A
C781       Br788   1.932       .  S
C782        C783   1.420       .  A
C782       Br787   1.935       .  S
C783        C784   1.420       .  A
C784       Br785   1.934   1_556  S
C789        C790   1.421       .  A
C789        C794   1.413       .  A
C789       Br796   1.924       .  S
C790        C791   1.424       .  A
C791        C792   1.409       .  A
C791       Br798   1.937   1_545  S
C792        C793   1.411       .  A
C792       Br797   1.933       .  S
C793        C794   1.411       .  A
C794       Br795   1.934       .  S
C799        C800   1.410       .  A
C799        C804   1.409       .  A
C799       Br806   1.930       .  S
C800        C801   1.410       .  A
C801        C802   1.409       .  A
C801       Br808   1.931       .  S
C802        C803   1.411       .  A
C802       Br807   1.930       .  S
C803        C804   1.411       .  A
C804       Br805   1.930       .  S
C809        C810   1.408       .  A
C809        C814   1.407       .  A
C809       Br816   1.926       .  S
C810        C811   1.410       .  A
C811        C812   1.412       .  A
C811       Br818   1.929   1_554  S
C812        C813   1.411       .  A
C812       Br817   1.929       .  S
C813        C814   1.411       .  A
C814       Br815   1.931       .  S
C819        C820   1.408       .  A
C819        C824   1.413       .  A
C819       Br826   1.934       .  S
C820        C821   1.408       .  A
C821        C822   1.410       .  A
C821       Br828   1.936       .  S
C822        C823   1.425       .  A
C822       Br827   1.937       .  S
C823        C824   1.425       .  A
C824       Br825   1.935       .  S
C829        C830   1.415       .  A
C829        C834   1.406       .  A
C829       Br836   1.933       .  S
C830        C831   1.420       .  A
C831        C832   1.408       .  A
C831       Br838   1.935       .  S
C832        C833   1.405       .  A
C832       Br837   1.932       .  S
C833        C834   1.408       .  A
C834       Br835   1.933       .  S
C839        C840   1.412       .  A
C839        C844   1.407       .  A
C839       Br846   1.933       .  S
C840        C841   1.413       .  A
C841        C842   1.410       .  A
C841       Br848   1.931       .  S
C842        C843   1.408       .  A
C842       Br847   1.927       .  S
C843        C844   1.411       .  A
C844       Br845   1.930       .  S
C849        C850   1.407       .  A
C849        C854   1.408       .  A
C849       Br856   1.931   1_565  S
C850        C851   1.408       .  A
C851        C852   1.409       .  A
C851       Br858   1.931       .  S
C852        C853   1.414       .  A
C852       Br857   1.931       .  S
C853        C854   1.414       .  A
C854       Br855   1.932       .  S
C859        C860   1.410       .  A
C859        C864   1.411       .  A
C859       Br866   1.932       .  S
C860        C861   1.410       .  A
C861        C862   1.410       .  A
C861       Br868   1.932       .  S
C862        C863   1.417       .  A
C862       Br867   1.934   1_556  S
C863        C864   1.419       .  A
C864       Br865   1.935       .  S
C869        C870   1.412       .  A
C869        C874   1.408       .  A
C869       Br876   1.936       .  S
C870        C871   1.412       .  A
C871        C872   1.413       .  A
C871       Br878   1.933       .  S
C872        C873   1.421       .  A
C872       Br877   1.934   1_545  S
C873        C874   1.420       .  A
C874       Br875   1.936       .  S
C879        C880   1.410       .  A
C879        C884   1.409       .  A
C879       Br886   1.930   1_554  S
C880        C881   1.411       .  A
C881        C882   1.412       .  A
C881       Br888   1.930       .  S
C882        C883   1.411       .  A
C882       Br887   1.928       .  S
C883        C884   1.409       .  A
C884       Br885   1.929       .  S
