geometry optimzed in LAMMPS
_audit_creation_date              2020-11-30 
_audit_creation_method            'lammps2cif' 
_symmetry_space_group_name_H-M    'P1' 
_symmetry_Int_Tables_number       1 
_symmetry_cell_setting            triclinic 
loop_ 
_symmetry_equiv_pos_as_xyz 
  x,y,z 
_cell_length_a                    28.45810429 
_cell_length_b                    28.472338628322998 
_cell_length_c                    50.409748931274805 
_cell_angle_alpha                 90.50780867514482 
_cell_angle_beta                  89.5312405243006 
_cell_angle_gamma                 120.25324831271892 
loop_ 
_atom_site_label 
_atom_site_type_symbol 
_atom_site_fract_x 
_atom_site_fract_y 
_atom_site_fract_z 
_atom_site_charge 
C1          C  0.06147741  0.12424981  0.64571069     0.82200
N2          N  0.10678747  0.13268376  0.65861550    -0.76100
C3          C  0.11474899  0.14914758  0.68436473     0.84600
N4          N  0.07725471  0.15729273  0.69724115    -0.76100
C5          C  0.03192707  0.14908114  0.68433619     0.84700
N6          N  0.02414876  0.13260650  0.65856729    -0.77800
C7          C  0.05977626  0.78567957  0.64562050     0.82200
N8          N  0.10563594  0.82230237  0.65853378    -0.76100
C9          C  0.11366046  0.81372702  0.68414585     0.84600
N10         N  0.07565806  0.76826267  0.69685507    -0.76100
C11         C  0.02977374  0.73140234  0.68397621     0.84700
N12         N  0.02193184  0.74017229  0.65834535    -0.77800
C13         C  0.91560440  0.92524097  0.84167058     0.82200
N14         N  0.88930607  0.87013845  0.84201215    -0.76100
C15         C  0.91814227  0.84404838  0.84161619     0.84600
N16         N  0.97326524  0.87303953  0.84052780    -0.76100
C17         C  0.99956067  0.92815438  0.84018328     0.84700
N18         N  0.97073556  0.95427031  0.84058358    -0.77800
O19         O  0.63603678  0.08725502  0.75710460    -0.83400
O20         O  0.71905208  0.19200589  0.76409518    -0.80500
C21         C  0.75817397  0.23104556  0.77597905     1.00100
O22         O  0.79392116  0.22486546  0.78766571    -0.80500
O23         O  0.74695453  0.16610372  0.83328794    -0.83100
C24         C  0.71711625  0.12629090  0.84793614     1.04600
O25         O  0.69501016  0.07825787  0.83902860    -0.75900
O26         O  0.62360365  0.06997180  0.79982053    -0.76100
C27         C  0.60779865  0.07840686  0.77802883     1.04500
O28         O  0.71639325  0.05820262  0.73978795    -0.83400
O29         O  0.79661822  0.16457725  0.74228115    -0.80500
C30         C  0.83579024  0.16185582  0.75226717     1.00100
O31         O  0.83634218  0.15272197  0.77655423    -0.80500
O32         O  0.79621410  0.10069807  0.82327456    -0.83100
C33         C  0.77703818  0.05096783  0.81759837     1.04500
O34         O  0.73353427  0.02465067  0.80471771    -0.75900
O35         O  0.65451645  0.00462140  0.76825807    -0.76100
C36         C  0.68235317  0.01117802  0.74753185     1.04500
Cr37       Cr  0.71776107  0.12439579  0.75334557     1.93700
Cr38       Cr  0.78862807  0.15771793  0.80371605     1.93200
Cr39       Cr  0.68020469  0.04925486  0.80174807     1.39100
O40         O  0.72886884  0.11086727  0.78635327    -1.21200
O41         O  0.71937466  0.37481292  0.76562037    -0.83400
O42         O  0.63821091  0.39843004  0.75863246    -0.80500
C43         C  0.60990523  0.38084018  0.77959747     1.00100
O44         O  0.62646374  0.40602980  0.80129804    -0.80500
O45         O  0.69951363  0.46900228  0.84015941    -0.83100
C46         C  0.72009118  0.44181429  0.84875105     1.04600
O47         O  0.74931075  0.43091393  0.83399552    -0.73800
O48         O  0.79558509  0.41763734  0.78813145    -0.76100
C49         C  0.75888126  0.37511072  0.77683023     1.04500
O50         O  0.79851609  0.47889477  0.74340629    -0.83400
O51         O  0.71989037  0.50631500  0.74075777    -0.80500
C52         C  0.68693240  0.52071398  0.74848825     1.00100
O53         O  0.65994765  0.50178925  0.76963015    -0.80500
O54         O  0.74015981  0.56085465  0.80580147    -0.83100
C55         C  0.78337544  0.57753905  0.81876054     1.04500
O56         O  0.80088024  0.54597610  0.82458811    -0.75900
O57         O  0.83911154  0.53251267  0.77735752    -0.76100
C58         C  0.83769497  0.52187314  0.75304150     1.04500
Cr59       Cr  0.71981422  0.44152323  0.75462953     1.93700
Cr60       Cr  0.68494060  0.48299358  0.80303232     1.93200
Cr61       Cr  0.79158037  0.48042262  0.80459117     1.39100
O62         O  0.73199296  0.46785795  0.78749991    -1.21200
O63         O  0.44850782  0.20845210  0.75827053    -0.83400
O64         O  0.46935897  0.12528486  0.76545814    -0.80500
C65         C  0.46755373  0.08508697  0.77669889     1.00100
O66         O  0.42435745  0.04917731  0.78783775    -0.80500
O67         O  0.41231626  0.09658194  0.83346154    -0.83100
C68         C  0.40264599  0.12674210  0.84814799     1.04600
O69         O  0.37622250  0.14816971  0.83956357    -0.75900
O70         O  0.44072991  0.22040545  0.80090273    -0.76100
C71         C  0.46610293  0.23678242  0.77926584     1.04500
O72         O  0.33986818  0.12843050  0.74009543    -0.83400
O73         O  0.36487742  0.04801195  0.74289692    -0.80500
C74         C  0.32164899  0.00907111  0.75248778     1.00100
O75         O  0.31029150  0.00838672  0.77665916    -0.80500
O76         O  0.29734779  0.04774518  0.82369812    -0.83100
C77         C  0.26683278  0.06633056  0.81754036     1.04500
O78         O  0.28490834  0.10983916  0.80474726    -0.75900
O79         O  0.34594462  0.18925480  0.76882770    -0.76100
C80         C  0.32612375  0.16187364  0.74786073     1.04500
Cr81       Cr  0.40374439  0.12683460  0.75416117     1.93700
Cr82       Cr  0.36251488  0.05516817  0.80401646     1.93200
Cr83       Cr  0.36326548  0.16339126  0.80234490     1.39100
O84         O  0.37697318  0.11523734  0.78691526    -1.21200
C85         C  0.72135538  0.78328889  0.64524871     0.82200
N86         N  0.71167056  0.81949263  0.65829955    -0.76100
C87         C  0.69425631  0.81048988  0.68388741     0.84600
N88         N  0.68643115  0.76503039  0.69645287    -0.76100
C89         C  0.69590813  0.72860748  0.68338622     0.84700
N90         N  0.71332469  0.73778683  0.65778506    -0.77800
C91         C  0.38729647  0.78386788  0.31196727     0.82200
N92         N  0.43192772  0.79106042  0.32512757    -0.76100
C93         C  0.43986923  0.80773812  0.35085628     0.84600
N94         N  0.40312897  0.81748118  0.36340334    -0.76100
C95         C  0.35851824  0.81050451  0.35024283     0.84700
N96         N  0.35074575  0.79380736  0.32451843    -0.77800
C97         C  0.05852044  0.45368873  0.31270825     0.82200
N98         N  0.05061669  0.40855930  0.32558163    -0.76100
C99         C  0.03356396  0.40013113  0.35124326     0.84600
N100        N  0.02423968  0.43691506  0.36403210    -0.76100
C101        C  0.03192716  0.48201285  0.35114758     0.84700
N102        N  0.04898926  0.49027768  0.32548929    -0.77800
C103        C  0.24719182  0.59213088  0.50787968     0.82200
N104        N  0.22053723  0.53699833  0.50761108    -0.76100
C105        C  0.24904405  0.51056088  0.50756294     0.84600
N106        N  0.30420617  0.53924060  0.50744877    -0.76100
C107        C  0.33086979  0.59436847  0.50771986     0.84700
N108        N  0.30238220  0.62084379  0.50776679    -0.77800
O109        O  0.96817883  0.75566682  0.42398041    -0.83400
O110        O  0.05067350  0.86019537  0.43137723    -0.80500
C111        C  0.09015088  0.89928642  0.44297955     1.00100
O112        O  0.12633123  0.89335429  0.45438129    -0.80500
O113        O  0.08041106  0.83490061  0.50024231    -0.83100
C114        C  0.05042078  0.79504923  0.51484974     1.04600
O115        O  0.02772254  0.74705838  0.50583406    -0.75900
O116        O  0.95608046  0.73890682  0.46670947    -0.76100
C117        C  0.94011041  0.74720159  0.44492345     1.04500
O118        O  0.04916470  0.72767902  0.40653436    -0.83400
O119        O  0.12866262  0.83422625  0.40913147    -0.80500
C120        C  0.16763368  0.83066845  0.41872846     1.00100
O121        O  0.16846197  0.82105560  0.44292805    -0.80500
O122        O  0.12923641  0.76933167  0.48979461    -0.83100
C123        C  0.10978981  0.71955915  0.48413425     1.04500
O124        O  0.06600812  0.69332455  0.47144814    -0.75900
O125        O  0.98730352  0.67371999  0.43493737    -0.76100
C126        C  0.01539556  0.68057308  0.41425467     1.04500
Cr127      Cr  0.04992305  0.79331059  0.42027127     1.93700
Cr128      Cr  0.12141458  0.82635289  0.47038341     1.93200
Cr129      Cr  0.01273388  0.71807218  0.46854991     1.39100
O130        O  0.06135015  0.77964465  0.45319248    -1.21200
O131        O  0.04950234  0.04123599  0.43209174    -0.83400
O132        O  0.96828472  0.06501808  0.42482500    -0.80500
C133        C  0.93984946  0.04699681  0.44572365     1.00100
O134        O  0.95661328  0.07161285  0.46755451    -0.80500
O135        O  0.02990967  0.13403476  0.50660469    -0.83100
C136        C  0.05157106  0.10770781  0.51504716     1.04600
O137        O  0.08101539  0.09745045  0.50012818    -0.75900
O138        O  0.12654185  0.08493586  0.45395359    -0.76100
C139        C  0.08953722  0.04211049  0.44305255     1.04500
O140        O  0.12864269  0.14467073  0.40973143    -0.83400
O141        O  0.05048514  0.17297244  0.40731287    -0.80500
C142        C  0.01807461  0.18789827  0.41530812     1.00100
O143        O  0.99055253  0.16830366  0.43627507    -0.80500
O144        O  0.07003553  0.22660160  0.47264819    -0.83100
C145        C  0.11366270  0.24362874  0.48527510     1.04500
O146        O  0.13157921  0.21235398  0.49091034    -0.75900
O147        O  0.16911934  0.19926765  0.44338058    -0.76100
C148        C  0.16797726  0.18768576  0.41922060     1.04500
Cr149      Cr  0.04999488  0.10784768  0.42098656     1.93700
Cr150      Cr  0.01512890  0.14869354  0.46959761     1.93200
Cr151      Cr  0.12235430  0.14715956  0.47069144     1.39100
O152        O  0.06234114  0.13410330  0.45386856    -1.21200
O153        O  0.77732294  0.87459087  0.42444461    -0.83400
O154        O  0.80008740  0.79270791  0.43196932    -0.80500
C155        C  0.79925332  0.75315574  0.44343574     1.00100
O156        O  0.75649404  0.71706992  0.45480833    -0.80500
O157        O  0.74450718  0.76497897  0.50021269    -0.83100
C158        C  0.73433906  0.79482183  0.51485921     1.04600
O159        O  0.70730706  0.81559890  0.50625986    -0.75900
O160        O  0.77001478  0.88740050  0.46701266    -0.76100
C161        C  0.79514805  0.90341181  0.44528949     1.04500
O162        O  0.66852829  0.79261335  0.40698535    -0.83400
O163        O  0.69549075  0.71372117  0.41011195    -0.80500
C164        C  0.65266828  0.67472361  0.41996584     1.00100
O165        O  0.64182603  0.67430950  0.44419090    -0.80500
O166        O  0.62917056  0.71413165  0.49115215    -0.83100
C167        C  0.59786680  0.73184727  0.48511404     1.04500
O168        O  0.61490377  0.77485806  0.47201042    -0.75900
O169        O  0.67378160  0.85352602  0.43542066    -0.76100
C170        C  0.65373051  0.82528632  0.41469349     1.04500
Cr171      Cr  0.73349453  0.79276283  0.42086732     1.93700
Cr172      Cr  0.69433255  0.72227390  0.47115826     1.93200
Cr173      Cr  0.69290635  0.82939282  0.46900956     1.39100
O174        O  0.70738479  0.78160621  0.45375469    -1.21200
C175        C  0.39267616  0.44839614  0.31265035     0.82200
N176        N  0.43796410  0.48607166  0.32559432    -0.76100
C177        C  0.44600179  0.47823289  0.35132953     0.84600
N178        N  0.40862608  0.43255062  0.36410373    -0.76100
C179        C  0.36340808  0.39472481  0.35114886     0.84700
N180        N  0.35551848  0.40271968  0.32543771    -0.77800
C181        C  0.72632739  0.12016453  0.97877693     0.82200
N182        N  0.77211112  0.15734707  0.99156756    -0.76100
C183        C  0.78050272  0.14921603  0.01719944     0.84600
N184        N  0.74299447  0.10367715  0.03002795    -0.76100
C185        C  0.69722448  0.06629623  0.01726848     0.84700
N186        N  0.68899396  0.07459829  0.99163164    -0.77800
C187        C  0.72809566  0.45893965  0.97927450     0.82200
N188        N  0.69132823  0.46811603  0.99213253    -0.76100
C189        C  0.69956531  0.48500109  0.01783537     0.84600
N190        N  0.74478606  0.49276552  0.03068638    -0.76100
C191        C  0.78174568  0.48379753  0.01781051     0.84700
N192        N  0.77331540  0.46692115  0.99211677    -0.77800
C193        C  0.58643826  0.26437104  0.17524018     0.82200
N194        N  0.55741689  0.20920989  0.17492118    -0.76100
C195        C  0.58359956  0.18041851  0.17493318     0.84600
N196        N  0.63878848  0.20681559  0.17491398    -0.76100
C197        C  0.66774985  0.26197001  0.17523541     0.84700
N198        N  0.64156568  0.29069974  0.17522808    -0.77800
O199        O  0.11362779  0.54114129  0.09162236    -0.83400
O200        O  0.13616861  0.45913326  0.09908399    -0.80500
C201        C  0.13523044  0.41937678  0.11036751     1.00100
O202        O  0.09237879  0.38298880  0.12154348    -0.80500
O203        O  0.08067642  0.43005612  0.16740565    -0.83100
C204        C  0.07120909  0.46034272  0.18212555     1.04600
O205        O  0.04484416  0.48189174  0.17360926    -0.75900
O206        O  0.10739006  0.55385134  0.13428471    -0.76100
C207        C  0.13182434  0.57002230  0.11239407     1.04500
O208        O  0.00502729  0.45990434  0.07436175    -0.83400
O209        O  0.03176091  0.38062759  0.07707923    -0.80500
C210        C  0.98859390  0.34180837  0.08672887     1.00100
O211        O  0.97769617  0.34105493  0.11097435    -0.80500
O212        O  0.96565598  0.38024132  0.15830102    -0.83100
C213        C  0.93467701  0.39850185  0.15260120     1.04500
O214        O  0.95196548  0.44190669  0.13978122    -0.75900
O215        O  0.01082902  0.52063200  0.10312549    -0.76100
C216        C  0.99101461  0.49313851  0.08216969     1.04500
Cr217      Cr  0.06978138  0.45946315  0.08806117     1.93700
Cr218      Cr  0.03046051  0.38826452  0.13812284     1.93200
Cr219      Cr  0.03011328  0.49606786  0.13652494     1.39100
O220        O  0.04390272  0.44806296  0.12100249    -1.21200
O221        O  0.38513612  0.71102331  0.09848410    -0.83400
O222        O  0.30310743  0.73341974  0.09074952    -0.80500
C223        C  0.27458861  0.71527756  0.11163252     1.00100
O224        O  0.29061362  0.74042057  0.13335958    -0.80500
O225        O  0.36215976  0.80370973  0.17257489    -0.83100
C226        C  0.38345344  0.77718035  0.18119595     1.04600
O227        O  0.41383422  0.76764604  0.16660703    -0.75900
O228        O  0.46112599  0.75523371  0.12110377    -0.76100
C229        C  0.42487877  0.71219268  0.10994630     1.04500
O230        O  0.46388896  0.81522332  0.07632656    -0.83400
O231        O  0.38477785  0.84197937  0.07326969    -0.80500
C232        C  0.35191928  0.85652689  0.08099568     1.00100
O233        O  0.32362428  0.83633461  0.10168177    -0.80500
O234        O  0.40199385  0.89594928  0.13835407    -0.83100
C235        C  0.44530347  0.91351352  0.15132023     1.04500
O236        O  0.46375422  0.88273451  0.15717373    -0.75900
O237        O  0.50323573  0.86974485  0.11014208    -0.76100
C238        C  0.50274542  0.85844481  0.08597032     1.04500
Cr239      Cr  0.38489308  0.77730758  0.08719128     1.93700
Cr240      Cr  0.34805786  0.81773808  0.13532062     1.93200
Cr241      Cr  0.45585240  0.81748513  0.13733253     1.39100
O242        O  0.39616584  0.80375464  0.12004086    -1.21200
O243        O  0.31781652  0.45942898  0.09850559    -0.83400
O244        O  0.42205045  0.54305403  0.09104537    -0.80500
C245        C  0.43074460  0.57142814  0.11191032     1.00100
O246        O  0.43948086  0.55594506  0.13372851    -0.80500
O247        O  0.43248021  0.48504438  0.17297868    -0.83100
C248        C  0.38449725  0.46181313  0.18202759     1.04600
O249        O  0.34467457  0.43166646  0.16742283    -0.75900
O250        O  0.28586983  0.38436072  0.12179232    -0.76100
C251        C  0.27907900  0.41986996  0.11025730     1.04500
O252        O  0.34571043  0.38254511  0.07652047    -0.83400
O253        O  0.45181460  0.46325260  0.07374163    -0.80500
C254        C  0.49886404  0.49753627  0.08139955     1.00100
O255        O  0.50543827  0.52568226  0.10203668    -0.80500
O256        O  0.48701449  0.44759310  0.13866389    -0.83100
C257        C  0.46126433  0.40395035  0.15146127     1.04500
O258        O  0.41146909  0.38413841  0.15721286    -0.75900
O259        O  0.35958417  0.34369349  0.11049682    -0.76100
C260        C  0.34987258  0.34407013  0.08627743     1.04500
Cr261      Cr  0.38551949  0.46138617  0.08747175     1.93700
Cr262      Cr  0.46125032  0.50004445  0.13567420     1.93200
Cr263      Cr  0.35367289  0.39067779  0.13775779     1.39100
O264        O  0.39974159  0.45072556  0.12041623    -1.21200
C265        C  0.39421308  0.12336617  0.97891015     0.82200
N266        N  0.38662696  0.07853669  0.99195399    -0.76100
C267        C  0.37044167  0.07080348  0.01773532     0.84600
N268        N  0.36160782  0.10794672  0.03047296    -0.76100
C269        C  0.36897209  0.15276402  0.01743369     0.84700
N270        N  0.38517078  0.16035707  0.99163770    -0.77800
C271        C  0.34512587  0.30063771  0.06954384    -0.16600
C272        C  0.34650292  0.26539676  0.05660815     0.07500
C273        C  0.35233375  0.22539812  0.04244174     0.09300
C274        C  0.35936795  0.19203464  0.03089599    -0.17400
C275        C  0.43107408  0.62224585  0.11066762    -0.11300
C276        C  0.42927633  0.66383177  0.11010783    -0.12900
C277        C  0.34798491  0.89777039  0.06654465    -0.16600
C278        C  0.34971551  0.93582131  0.05520268     0.07500
C279        C  0.35545134  0.98248448  0.04236236     0.09300
C280        C  0.36194062  0.02286673  0.03135119    -0.17400
C281        C  0.22623554  0.41525984  0.11032773    -0.11300
C282        C  0.18373778  0.41530694  0.11030726    -0.12900
C283        C  0.22303739  0.66534427  0.11064796    -0.11300
C284        C  0.18082448  0.62231136  0.11097091    -0.12900
C285        C  0.55907403  0.29494157  0.17369432    -0.16600
C286        C  0.53688206  0.32106949  0.17079097     0.07500
C287        C  0.51118295  0.35133440  0.16559649     0.09300
C288        C  0.48885255  0.37619101  0.15977951    -0.17400
C289        C  0.47396597  0.96933625  0.15969335    -0.16600
C290        C  0.49848121  0.01700423  0.16535453     0.07500
C291        C  0.52769133  0.07351013  0.17035486     0.09300
C292        C  0.55303368  0.12218160  0.17321964    -0.17400
C293        C  0.87889411  0.36932203  0.16090102    -0.16600
C294        C  0.83121159  0.34417794  0.16642805     0.07500
C295        C  0.77468390  0.31468975  0.17119176     0.09300
C296        C  0.72597277  0.29004600  0.17382228    -0.17400
C297        C  0.54539037  0.50349320  0.06689166    -0.16600
C298        C  0.58298862  0.50363262  0.05546165     0.07500
C299        C  0.62531334  0.49971434  0.04250572     0.09300
C300        C  0.65996665  0.49396375  0.03144059    -0.17400
C301        C  0.82953052  0.49150524  0.03137477    -0.16600
C302        C  0.86921119  0.49632409  0.04250148     0.07500
C303        C  0.91449387  0.49940104  0.05567315     0.09300
C304        C  0.95115011  0.49888791  0.06736332    -0.17400
C305        C  0.65743340  0.01795936  0.03087962    -0.16600
C306        C  0.62341754  0.97795294  0.04240367     0.07500
C307        C  0.58250958  0.93252579  0.05640656     0.09300
C308        C  0.54659534  0.89633743  0.06921497    -0.17400
C309        C  0.95037352  0.29838973  0.06985623    -0.16600
C310        C  0.91424525  0.26302859  0.05676347     0.07500
C311        C  0.86898495  0.22267075  0.04242395     0.09300
C312        C  0.82900478  0.18891041  0.03076184    -0.17400
C313        C  0.37661856  0.46527081  0.21003861    -0.16600
C314        C  0.37570048  0.46464006  0.23399688     0.07500
C315        C  0.37931838  0.46095946  0.26182262     0.09300
C316        C  0.38476729  0.45604136  0.28519429    -0.17400
C317        C  0.61471605  0.63054760  0.40338440    -0.16600
C318        C  0.57864148  0.59430498  0.39065991     0.07500
C319        C  0.53353820  0.55294509  0.37665772     0.09300
C320        C  0.49388940  0.51849376  0.36506622    -0.17400
C321        C  0.88754275  0.99785661  0.44451787    -0.11300
C322        C  0.84473331  0.95534744  0.44426743    -0.12900
C323        C  0.21170364  0.22496680  0.40233764    -0.16600
C324        C  0.24786524  0.26092632  0.38960786     0.07500
C325        C  0.28923183  0.30631452  0.37589615     0.09300
C326        C  0.32360525  0.34639329  0.36463430    -0.17400
C327        C  0.84766074  0.74875638  0.44338606    -0.11300
C328        C  0.88920593  0.74681115  0.44382005    -0.12900
C329        C  0.09341801  0.99369432  0.44290678    -0.11300
C330        C  0.09394098  0.95156384  0.44297663    -0.12900
C331        C  0.14336362  0.29943519  0.49344209    -0.16600
C332        C  0.16826518  0.34717256  0.49881143     0.07500
C333        C  0.19691129  0.40372031  0.50342209     0.09300
C334        C  0.22090953  0.45240231  0.50602262    -0.17400
C335        C  0.38910065  0.62455260  0.50626830    -0.16600
C336        C  0.43780742  0.64944457  0.50364325     0.07500
C337        C  0.49436395  0.67825224  0.49891423     0.09300
C338        C  0.54207919  0.70276127  0.49342121    -0.17400
C339        C  0.13796834  0.69241532  0.49248234    -0.16600
C340        C  0.16246921  0.66972815  0.49831933     0.07500
C341        C  0.19177469  0.64303356  0.50352407     0.09300
C342        C  0.21707545  0.61997081  0.50640342    -0.17400
C343        C  0.01350719  0.22865019  0.40071223    -0.16600
C344        C  0.01447283  0.26607301  0.38908659     0.07500
C345        C  0.01930529  0.31207895  0.37591820     0.09300
C346        C  0.02525135  0.35214909  0.36477691    -0.17400
C347        C  0.02216405  0.52116617  0.36459633    -0.16600
C348        C  0.01554731  0.55535080  0.37553363     0.07500
C349        C  0.01060460  0.59711738  0.38837580     0.09300
C350        C  0.01001880  0.63433623  0.39976927    -0.17400
C351        C  0.07427085  0.46131483  0.28518296    -0.16600
C352        C  0.08357434  0.46564767  0.26163966     0.07500
C353        C  0.08830896  0.46768330  0.23365756     0.09300
C354        C  0.08528727  0.46628508  0.20975931    -0.17400
C355        C  0.61242091  0.82914042  0.40015002    -0.16600
C356        C  0.57445423  0.82755742  0.38871006     0.07500
C357        C  0.52792691  0.82211982  0.37573079     0.09300
C358        C  0.48767533  0.81590470  0.36460403    -0.17400
C359        C  0.21106330  0.83586494  0.40183315    -0.16600
C360        C  0.24634305  0.83459751  0.38886640     0.07500
C361        C  0.28635466  0.82853378  0.37482592     0.09300
C362        C  0.31961220  0.82100523  0.36348357    -0.17400
C363        C  0.37697623  0.76263901  0.20876165    -0.16600
C364        C  0.37525507  0.75839929  0.23260471     0.07500
C365        C  0.37682239  0.76129302  0.26063620     0.09300
C366        C  0.38055364  0.76919408  0.28429953    -0.17400
C367        C  0.73746946  0.79187032  0.61780206    -0.16600
C368        C  0.74685932  0.79752283  0.59429278     0.07500
C369        C  0.75144400  0.80121055  0.56634902     0.09300
C370        C  0.74828073  0.80075899  0.54248445    -0.17400
C371        C  0.40877931  0.13003213  0.95124880    -0.16600
C372        C  0.41698779  0.13346007  0.92762118     0.07500
C373        C  0.42052070  0.13465621  0.89961723     0.09300
C374        C  0.41680509  0.13283476  0.87575413    -0.17400
C375        C  0.55797092  0.33145315  0.77861819    -0.11300
C376        C  0.51548402  0.28873724  0.77844313    -0.12900
C377        C  0.71446964  0.42862120  0.87647666    -0.16600
C378        C  0.71333566  0.42664862  0.90040044     0.07500
C379        C  0.71567249  0.43264365  0.92832856     0.09300
C380        C  0.72022456  0.44276245  0.95179724    -0.17400
C381        C  0.68088416  0.55993988  0.73333948    -0.16600
C382        C  0.68019088  0.59610266  0.72131541     0.07500
C383        C  0.68321920  0.64101209  0.70786336     0.09300
C384        C  0.68811039  0.68061700  0.69669117    -0.17400
C385        C  0.76230060  0.32622522  0.77645111    -0.11300
C386        C  0.76209291  0.28359685  0.77614186    -0.12900
C387        C  0.55685812  0.07779914  0.77693607    -0.11300
C388        C  0.51540548  0.07984636  0.77662072    -0.12900
C389        C  0.71239833  0.13439299  0.87584125    -0.16600
C390        C  0.71174137  0.13571805  0.89980736     0.07500
C391        C  0.71421107  0.13277381  0.92776961     0.09300
C392        C  0.71864912  0.12785356  0.95126364    -0.17400
C393        C  0.67619652  0.96461109  0.73301509    -0.16600
C394        C  0.67562492  0.92677929  0.72163330     0.07500
C395        C  0.67914233  0.88421896  0.70873624     0.09300
C396        C  0.68487441  0.84959762  0.69765927    -0.17400
C397        C  0.89024119  0.78586565  0.84047901    -0.16600
C398        C  0.86626623  0.73718334  0.83789111     0.07500
C399        C  0.83766815  0.68073984  0.83296989     0.09300
C400        C  0.81290645  0.63317334  0.82723348    -0.17400
C401        C  0.05767381  0.95867790  0.83797456    -0.16600
C402        C  0.10630795  0.98393784  0.83509634     0.07500
C403        C  0.16288593  0.01306590  0.83048743     0.09300
C404        C  0.21074629  0.03759753  0.82533003    -0.17400
C405        C  0.88504510  0.95260959  0.84044426    -0.16600
C406        C  0.85937692  0.97527486  0.83760251     0.07500
C407        C  0.82976273  0.00154471  0.83225348     0.09300
C408        C  0.80515867  0.02397868  0.82620010    -0.17400
C409        C  0.88067307  0.56041463  0.73608310    -0.16600
C410        C  0.91566941  0.59708762  0.72310484     0.07500
C411        C  0.95576850  0.64287562  0.70896916     0.09300
C412        C  0.98958623  0.68301661  0.69744194    -0.17400
C413        C  0.16216693  0.85314217  0.69781319    -0.16600
C414        C  0.20227683  0.88738466  0.70921839     0.07500
C415        C  0.24772037  0.92884099  0.72302130     0.09300
C416        C  0.28386145  0.96514619  0.73570733    -0.17400
C417        C  0.04617352  0.80294704  0.54282946    -0.16600
C418        C  0.04574228  0.80372552  0.56680973     0.07500
C419        C  0.04820395  0.79984984  0.59472625     0.09300
C420        C  0.05242189  0.79409509  0.61815825    -0.17400
C421        C  0.28621972  0.16762082  0.73313384    -0.16600
C422        C  0.24908340  0.16757997  0.72166823     0.07500
C423        C  0.20306704  0.16347859  0.70883058     0.09300
C424        C  0.16285483  0.15774363  0.69790167    -0.17400
C425        C  0.99200337  0.15759088  0.69793537    -0.16600
C426        C  0.95767871  0.16339635  0.70933051     0.07500
C427        C  0.91631889  0.16764702  0.72313363     0.09300
C428        C  0.88003138  0.16776288  0.73574812    -0.17400
C429        C  0.05417064  0.10863422  0.61815758    -0.16600
C430        C  0.04973748  0.09887320  0.59465135     0.07500
C431        C  0.04684267  0.09301105  0.56671458     0.09300
C432        C  0.04702835  0.09484377  0.54279327    -0.17400
loop_ 
_geom_bond_atom_site_label_1 
_geom_bond_atom_site_label_2 
_geom_bond_distance 
_geom_bond_site_symmetry_2 
_ccdc_geom_bond_type 
C1            N2   1.357       .  A
C1            N6   1.359       .  A
C1          C429   1.439       .  S
N2            C3   1.358       .  A
C3            N4   1.360       .  A
C3          C424   1.440       .  S
N4            C5   1.360       .  A
C5            N6   1.359       .  A
C5          C425   1.443   1_455  S
C7            N8   1.358       .  A
C7           N12   1.359       .  A
C7          C420   1.442       .  S
N8            C9   1.358       .  A
C9           N10   1.360       .  A
C9          C413   1.442       .  S
N10          C11   1.360       .  A
C11          N12   1.359       .  A
C11         C412   1.443   1_455  S
C13          N14   1.356       .  A
C13          N18   1.357       .  A
C13         C405   1.432       .  S
N14          C15   1.356       .  A
C15          N16   1.356       .  A
C15         C397   1.432       .  S
N16          C17   1.356       .  A
C17          N18   1.357       .  A
C17         C401   1.433   1_655  S
O19         Cr37   2.020       .  S
O19          C27   1.268       .  A
O20         Cr37   1.978       .  S
O20          C21   1.259       .  A
C21         C386   1.443       .  S
C21          O22   1.267       .  A
O22         Cr38   2.017       .  S
O23         Cr38   1.984       .  S
O23          C24   1.259       .  A
C24         C389   1.440       .  S
C24          O25   1.263       .  A
O25         Cr39   2.007       .  S
O26         Cr39   1.978       .  S
O26          C27   1.260       .  A
C27         C387   1.443       .  S
O28         Cr37   1.981       .  S
O28          C36   1.257       .  A
O29         Cr37   2.015       .  S
O29          C30   1.265       .  A
C30         C428   1.442       .  S
C30          O31   1.256       .  A
O31         Cr38   1.975       .  S
O32         Cr38   2.010       .  S
O32          C33   1.265       .  A
C33         C408   1.432       .  S
C33          O34   1.259       .  A
O34         Cr39   1.973       .  S
O35         Cr39   2.011       .  S
O35          C36   1.263       .  A
C36         C393   1.440   1_545  S
Cr37         O40   1.778       .  S
Cr38         O40   1.776       .  S
Cr39         O40   1.777       .  S
O41         Cr59   1.977       .  S
O41          C49   1.259       .  A
O42         Cr59   2.016       .  S
O42          C43   1.267       .  A
C43         C375   1.439       .  S
C43          O44   1.260       .  A
O44         Cr60   1.976       .  S
O45         Cr60   2.006       .  S
O45          C46   1.264       .  A
C46         C377   1.437       .  S
C46          O47   1.260       .  A
O47         Cr61   1.983       .  S
O48         Cr61   2.019       .  S
O48          C49   1.267       .  A
C49         C385   1.443       .  S
O50         Cr59   2.014       .  S
O50          C58   1.265       .  A
O51         Cr59   1.978       .  S
O51          C52   1.256       .  A
C52         C381   1.439       .  S
C52          O53   1.263       .  A
O53         Cr60   2.012       .  S
O54         Cr60   1.973       .  S
O54          C55   1.259       .  A
C55         C400   1.432       .  S
C55          O56   1.265       .  A
O56         Cr61   2.011       .  S
O57         Cr61   1.974       .  S
O57          C58   1.256       .  A
C58         C409   1.442       .  S
Cr59         O62   1.776       .  S
Cr60         O62   1.775       .  S
Cr61         O62   1.776       .  S
O63         Cr81   2.020       .  S
O63          C71   1.268       .  A
O64         Cr81   1.978       .  S
O64          C65   1.259       .  A
C65         C388   1.443       .  S
C65          O66   1.267       .  A
O66         Cr82   2.017       .  S
O67         Cr82   1.980       .  S
O67          C68   1.259       .  A
C68         C374   1.436       .  S
C68          O69   1.264       .  A
O69         Cr83   2.008       .  S
O70         Cr83   1.973       .  S
O70          C71   1.259       .  A
C71         C376   1.439       .  S
O72         Cr81   1.978       .  S
O72          C80   1.257       .  A
O73         Cr81   2.017       .  S
O73          C74   1.266       .  A
C74         C416   1.441   1_545  S
C74          O75   1.256       .  A
O75         Cr82   1.973       .  S
O76         Cr82   2.012       .  S
O76          C77   1.265       .  A
C77         C404   1.432       .  S
C77          O78   1.258       .  A
O78         Cr83   1.971       .  S
O79         Cr83   2.010       .  S
O79          C80   1.263       .  A
C80         C421   1.439       .  S
Cr81         O84   1.775       .  S
Cr82         O84   1.774       .  S
Cr83         O84   1.775       .  S
C85          N86   1.357       .  A
C85          N90   1.358       .  A
C85         C367   1.438       .  S
N86          C87   1.357       .  A
C87          N88   1.359       .  A
C87         C396   1.441       .  S
N88          C89   1.360       .  A
C89          N90   1.358       .  A
C89         C384   1.440       .  S
C91          N92   1.358       .  A
C91          N96   1.358       .  A
C91         C366   1.439       .  S
N92          C93   1.358       .  A
C93          N94   1.360       .  A
C93         C358   1.442       .  S
N94          C95   1.360       .  A
C95          N96   1.358       .  A
C95         C362   1.442       .  S
C97          N98   1.358       .  A
C97         N102   1.358       .  A
C97         C351   1.439       .  S
N98          C99   1.358       .  A
C99         N100   1.359       .  A
C99         C346   1.441       .  S
N100        C101   1.359       .  A
C101        N102   1.358       .  A
C101        C347   1.441       .  S
C103        N104   1.356       .  A
C103        N108   1.357       .  A
C103        C342   1.434       .  S
N104        C105   1.356       .  A
C105        N106   1.356       .  A
C105        C334   1.432       .  S
N106        C107   1.356       .  A
C107        N108   1.357       .  A
C107        C335   1.433       .  S
O109       Cr127   2.020   1_655  S
O109        C117   1.268       .  A
O110       Cr127   1.970       .  S
O110        C111   1.258       .  A
C111        C330   1.437       .  S
C111        O112   1.267       .  A
O112       Cr128   2.016       .  S
O113       Cr128   1.984       .  S
O113        C114   1.260       .  A
C114        C417   1.440       .  S
C114        O115   1.263       .  A
O115       Cr129   2.007       .  S
O116       Cr129   1.982   1_655  S
O116        C117   1.261       .  A
C117        C328   1.445       .  S
O118       Cr127   1.977       .  S
O118        C126   1.256       .  A
O119       Cr127   2.014       .  S
O119        C120   1.264       .  A
C120        C359   1.441       .  S
C120        O121   1.256       .  A
O121       Cr128   1.975       .  S
O122       Cr128   2.010       .  S
O122        C123   1.265       .  A
C123        C339   1.433       .  S
C123        O124   1.259       .  A
O124       Cr129   1.974       .  S
O125       Cr129   2.013   1_655  S
O125        C126   1.264   1_655  A
C126        C350   1.439       .  S
Cr127       O130   1.777       .  S
Cr128       O130   1.776       .  S
Cr129       O130   1.775       .  S
O131       Cr149   1.975       .  S
O131        C139   1.259       .  A
O132       Cr149   2.018   1_655  S
O132        C133   1.267       .  A
C133        C321   1.442   1_545  S
C133        O134   1.260       .  A
O134       Cr150   1.979   1_655  S
O135       Cr150   2.009       .  S
O135        C136   1.264       .  A
C136        C432   1.437       .  S
C136        O137   1.259       .  A
O137       Cr151   1.980       .  S
O138       Cr151   2.012       .  S
O138        C139   1.265       .  A
C139        C329   1.437   1_545  S
O140       Cr149   2.014       .  S
O140        C148   1.264       .  A
O141       Cr149   1.977       .  S
O141        C142   1.257       .  A
C142        C343   1.440       .  S
C142        O143   1.264   1_455  A
O143       Cr150   2.013   1_655  S
O144       Cr150   1.973       .  S
O144        C145   1.258       .  A
C145        C331   1.432       .  S
C145        O146   1.264       .  A
O146       Cr151   2.008       .  S
O147       Cr151   1.971       .  S
O147        C148   1.255       .  A
C148        C323   1.438       .  S
Cr149       O152   1.776       .  S
Cr150       O152   1.774       .  S
Cr151       O152   1.776       .  S
O153       Cr171   2.021       .  S
O153        C161   1.268       .  A
O154       Cr171   1.981       .  S
O154        C155   1.260       .  A
C155        C327   1.445       .  S
C155        O156   1.267       .  A
O156       Cr172   2.017       .  S
O157       Cr172   1.979       .  S
O157        C158   1.259       .  A
C158        C370   1.436       .  S
C158        O159   1.264       .  A
O159       Cr173   2.009       .  S
O160       Cr173   1.975       .  S
O160        C161   1.259       .  A
C161        C322   1.442       .  S
O162       Cr171   1.980       .  S
O162        C170   1.257       .  A
O163       Cr171   2.016       .  S
O163        C164   1.265       .  A
C164        C317   1.440       .  S
C164        O165   1.256       .  A
O165       Cr172   1.972       .  S
O166       Cr172   2.012       .  S
O166        C167   1.265       .  A
C167        C338   1.433       .  S
C167        O168   1.258       .  A
O168       Cr173   1.972       .  S
O169       Cr173   2.012       .  S
O169        C170   1.263       .  A
C170        C355   1.441       .  S
Cr171       O174   1.776       .  S
Cr172       O174   1.775       .  S
Cr173       O174   1.776       .  S
C175        N176   1.359       .  A
C175        N180   1.358       .  A
C175        C316   1.440       .  S
N176        C177   1.359       .  A
C177        N178   1.359       .  A
C177        C320   1.442       .  S
N178        C179   1.359       .  A
C179        N180   1.358       .  A
C179        C326   1.440       .  S
C181        N182   1.359       .  A
C181        N186   1.359       .  A
C181        C392   1.441       .  S
N182        C183   1.359   1_556  A
C183        N184   1.359       .  A
C183        C312   1.442       .  S
N184        C185   1.359       .  A
C185        N186   1.359   1_554  A
C185        C305   1.443       .  S
C187        N188   1.358       .  A
C187        N192   1.358       .  A
C187        C380   1.439       .  S
N188        C189   1.358   1_556  A
C189        N190   1.360       .  A
C189        C300   1.442       .  S
N190        C191   1.360       .  A
C191        N192   1.358   1_554  A
C191        C301   1.441       .  S
C193        N194   1.357       .  A
C193        N198   1.356       .  A
C193        C285   1.434       .  S
N194        C195   1.357       .  A
C195        N196   1.357       .  A
C195        C292   1.435       .  S
N196        C197   1.357       .  A
C197        N198   1.356       .  A
C197        C296   1.433       .  S
O199       Cr217   2.017       .  S
O199        C207   1.267       .  A
O200       Cr217   1.978       .  S
O200        C201   1.259       .  A
C201        C282   1.442       .  S
C201        O202   1.266       .  A
O202       Cr218   2.017       .  S
O203       Cr218   1.982       .  S
O203        C204   1.259       .  A
C204        C354   1.437       .  S
C204        O205   1.264       .  A
O205       Cr219   2.007       .  S
O206       Cr219   1.977       .  S
O206        C207   1.260       .  A
C207        C284   1.440       .  S
O208       Cr217   1.979       .  S
O208        C216   1.257   1_455  A
O209       Cr217   2.014       .  S
O209        C210   1.264   1_455  A
C210        C309   1.441       .  S
C210        O211   1.256       .  A
O211       Cr218   1.975   1_655  S
O212       Cr218   2.009   1_655  S
O212        C213   1.264       .  A
C213        C293   1.432       .  S
C213        O214   1.258       .  A
O214       Cr219   1.973   1_655  S
O215       Cr219   2.012       .  S
O215        C216   1.264   1_455  A
C216        C304   1.440       .  S
Cr217       O220   1.776       .  S
Cr218       O220   1.776       .  S
Cr219       O220   1.775       .  S
O221       Cr239   1.979       .  S
O221        C229   1.260       .  A
O222       Cr239   2.019       .  S
O222        C223   1.268       .  A
C223        C283   1.440       .  S
C223        O224   1.259       .  A
O224       Cr240   1.975       .  S
O225       Cr240   2.009       .  S
O225        C226   1.264       .  A
C226        C363   1.437       .  S
C226        O227   1.259       .  A
O227       Cr241   1.980       .  S
O228       Cr241   2.018       .  S
O228        C229   1.267       .  A
C229        C276   1.444       .  S
O230       Cr239   2.016       .  S
O230        C238   1.265       .  A
O231       Cr239   1.978       .  S
O231        C232   1.257       .  A
C232        C277   1.439       .  S
C232        O233   1.264       .  A
O233       Cr240   2.011       .  S
O234       Cr240   1.973       .  S
O234        C235   1.258       .  A
C235        C289   1.434       .  S
C235        O236   1.266       .  A
O236       Cr241   2.013       .  S
O237       Cr241   1.974       .  S
O237        C238   1.256       .  A
C238        C308   1.441       .  S
Cr239       O242   1.776       .  S
Cr240       O242   1.776       .  S
Cr241       O242   1.774       .  S
O243       Cr261   1.975       .  S
O243        C251   1.259       .  A
O244       Cr261   2.020       .  S
O244        C245   1.268       .  A
C245        C275   1.444       .  S
C245        O246   1.261       .  A
O246       Cr262   1.981       .  S
O247       Cr262   2.006       .  S
O247        C248   1.263       .  A
C248        C313   1.438       .  S
C248        O249   1.259       .  A
O249       Cr263   1.982       .  S
O250       Cr263   2.019       .  S
O250        C251   1.268       .  A
C251        C281   1.442       .  S
O252       Cr261   2.013       .  S
O252        C260   1.264       .  A
O253       Cr261   1.980       .  S
O253        C254   1.257       .  A
C254        C297   1.441       .  S
C254        O255   1.264       .  A
O255       Cr262   2.013       .  S
O256       Cr262   1.975       .  S
O256        C257   1.259       .  A
C257        C288   1.433       .  S
C257        O258   1.265       .  A
O258       Cr263   2.010       .  S
O259       Cr263   1.974       .  S
O259        C260   1.255       .  A
C260        C271   1.440       .  S
Cr261       O264   1.777       .  S
Cr262       O264   1.776       .  S
Cr263       O264   1.776       .  S
C265        N266   1.358       .  A
C265        N270   1.359       .  A
C265        C371   1.438       .  S
N266        C267   1.357   1_556  A
C267        N268   1.359       .  A
C267        C280   1.440       .  S
N268        C269   1.359       .  A
C269        N270   1.358   1_554  A
C269        C274   1.441       .  S
C271        C272   1.209       .  T
C272        C273   1.417       .  S
C273        C274   1.209       .  T
C275        C276   1.211       .  T
C277        C278   1.208       .  T
C278        C279   1.416       .  S
C279        C280   1.208   1_565  T
C281        C282   1.210       .  T
C283        C284   1.209       .  T
C285        C286   1.204       .  T
C286        C287   1.410       .  S
C287        C288   1.204       .  T
C289        C290   1.205   1_565  T
C290        C291   1.411       .  S
C291        C292   1.205       .  T
C293        C294   1.204       .  T
C294        C295   1.410       .  S
C295        C296   1.204       .  T
C297        C298   1.209       .  T
C298        C299   1.418       .  S
C299        C300   1.209       .  T
C301        C302   1.209       .  T
C302        C303   1.417       .  S
C303        C304   1.209       .  T
C305        C306   1.210   1_545  T
C306        C307   1.418       .  S
C307        C308   1.210       .  T
C309        C310   1.209       .  T
C310        C311   1.418       .  S
C311        C312   1.210       .  T
C313        C314   1.208       .  T
C314        C315   1.416       .  S
C315        C316   1.208       .  T
C317        C318   1.209       .  T
C318        C319   1.418       .  S
C319        C320   1.209       .  T
C321        C322   1.210       .  T
C323        C324   1.208       .  T
C324        C325   1.415       .  S
C325        C326   1.208       .  T
C327        C328   1.212       .  T
C329        C330   1.207       .  T
C331        C332   1.204       .  T
C332        C333   1.409       .  S
C333        C334   1.204       .  T
C335        C336   1.204       .  T
C336        C337   1.410       .  S
C337        C338   1.204       .  T
C339        C340   1.204       .  T
C340        C341   1.410       .  S
C341        C342   1.204       .  T
C343        C344   1.209       .  T
C344        C345   1.417       .  S
C345        C346   1.209       .  T
C347        C348   1.208       .  T
C348        C349   1.416       .  S
C349        C350   1.208       .  T
C351        C352   1.208       .  T
C352        C353   1.415       .  S
C353        C354   1.207       .  T
C355        C356   1.209       .  T
C356        C357   1.418       .  S
C357        C358   1.209       .  T
C359        C360   1.209       .  T
C360        C361   1.418       .  S
C361        C362   1.209       .  T
C363        C364   1.207       .  T
C364        C365   1.414       .  S
C365        C366   1.207       .  T
C367        C368   1.207       .  T
C368        C369   1.414       .  S
C369        C370   1.207       .  T
C371        C372   1.207       .  T
C372        C373   1.414       .  S
C373        C374   1.207       .  T
C375        C376   1.208       .  T
C377        C378   1.207       .  T
C378        C379   1.415       .  S
C379        C380   1.208       .  T
C381        C382   1.208       .  T
C382        C383   1.416       .  S
C383        C384   1.208       .  T
C385        C386   1.211       .  T
C387        C388   1.210       .  T
C389        C390   1.209       .  T
C390        C391   1.417       .  S
C391        C392   1.209       .  T
C393        C394   1.209       .  T
C394        C395   1.417       .  S
C395        C396   1.209       .  T
C397        C398   1.204       .  T
C398        C399   1.409       .  S
C399        C400   1.204       .  T
C401        C402   1.204       .  T
C402        C403   1.409   1_565  S
C403        C404   1.204       .  T
C405        C406   1.204       .  T
C406        C407   1.409   1_565  S
C407        C408   1.204       .  T
C409        C410   1.210       .  T
C410        C411   1.419       .  S
C411        C412   1.210       .  T
C413        C414   1.210       .  T
C414        C415   1.418       .  S
C415        C416   1.210       .  T
C417        C418   1.209       .  T
C418        C419   1.418       .  S
C419        C420   1.209       .  T
C421        C422   1.208       .  T
C422        C423   1.416       .  S
C423        C424   1.208       .  T
C425        C426   1.210       .  T
C426        C427   1.419       .  S
C427        C428   1.210       .  T
C429        C430   1.208       .  T
C430        C431   1.415       .  S
C431        C432   1.207       .  T
