geometry optimzed in LAMMPS
_audit_creation_date              2020-12-01 
_audit_creation_method            'lammps2cif' 
_symmetry_space_group_name_H-M    'P1' 
_symmetry_Int_Tables_number       1 
_symmetry_cell_setting            triclinic 
loop_ 
_symmetry_equiv_pos_as_xyz 
  x,y,z 
_cell_length_a                    46.80733087 
_cell_length_b                    46.49962842603604 
_cell_length_c                    46.008338075091004 
_cell_angle_alpha                 89.03681426205249 
_cell_angle_beta                  90.00754212051523 
_cell_angle_gamma                 91.47827353195869 
loop_ 
_atom_site_label 
_atom_site_type_symbol 
_atom_site_fract_x 
_atom_site_fract_y 
_atom_site_fract_z 
_atom_site_charge 
C1          C  0.78051143  0.53942178  0.01798563     0.89600
C2          C  0.76451489  0.54836230  0.99018331    -0.50600
C3          C  0.74951847  0.52605649  0.97760357     0.12600
C4          C  0.75344686  0.49692127  0.99322094     0.23500
C5          C  0.75726833  0.52500672  0.03746759    -0.51300
C6          C  0.74267122  0.50295420  0.02407294     0.12700
C7          C  0.79975186  0.51539158  0.00906420    -0.50900
C8          C  0.78603284  0.49326267  0.99612507     0.13200
H9          H  0.76151573  0.57074454  0.98403117     0.17700
H10         H  0.74220299  0.47866021  0.98243053     0.03500
H11         H  0.75097247  0.53342464  0.05832542     0.18000
H12         H  0.82283992  0.51612303  0.01204997     0.17800
C13         C  0.52555345  0.73488809  0.99360375     0.89600
C14         C  0.52316055  0.75650481  0.96796561    -0.50600
C15         C  0.49846307  0.77170563  0.96856558     0.12600
C16         C  0.47832538  0.76314495  0.99375733     0.23500
C17         C  0.52201223  0.75330777  0.02087349    -0.51300
C18         C  0.49727347  0.76858186  0.02049452     0.12700
C19         C  0.49884418  0.71588277  0.99223225    -0.50900
C20         C  0.47424674  0.73025048  0.99217538     0.13200
H21         H  0.54042910  0.76129437  0.95273539     0.17700
H22         H  0.45803073  0.77505617  0.99372636     0.03500
H23         H  0.53866835  0.75633918  0.03704811     0.18000
H24         H  0.49930711  0.69256257  0.99048986     0.17800
C25         C  0.02241946  0.52522972  0.77041293     0.89600
C26         C  0.02565881  0.49927799  0.75031672    -0.50600
C27         C  0.00181456  0.49368000  0.73392366     0.12600
C28         C  0.97699905  0.51366227  0.73979010     0.23500
C29         C  0.01420538  0.55009852  0.74979724    -0.51300
C30         C  0.99051529  0.54358719  0.73330846     0.12700
C31         C  0.99597871  0.51841591  0.78854358    -0.50900
C32         C  0.97235848  0.51212244  0.77290686     0.13200
H33         H  0.04551389  0.48802281  0.74767055     0.17700
H34         H  0.95751039  0.50863950  0.72682047     0.03500
H35         H  0.02749916  0.56932741  0.74628028     0.18000
H36         H  0.99619241  0.51725329  0.81220646     0.17800
C37         C  0.50540154  0.97570964  0.72455539     0.89600
C38         C  0.52605034  0.98930318  0.74692853    -0.50600
C39         C  0.51412333  0.01118821  0.76205018     0.12600
C40         C  0.48340706  0.01784461  0.75267673     0.23500
C41         C  0.47878443  0.96666759  0.74243412    -0.51300
C42         C  0.46776146  0.98871124  0.75806236     0.12700
C43         C  0.49617542  0.00032832  0.70513584    -0.50900
C44         C  0.48468957  0.02230341  0.71932639     0.13200
H45         H  0.54681504  0.98070046  0.75215654     0.17700
H46         H  0.47378237  0.03594192  0.76437457     0.03500
H47         H  0.47244102  0.94426720  0.74615469     0.18000
H48         H  0.49808748  0.00021463  0.68154057     0.17800
C49         C  0.72818618  0.99860537  0.53539159     0.89600
C50         C  0.74904672  0.97365847  0.53257718    -0.50600
C51         C  0.76436166  0.97489061  0.50719493     0.12600
C52         C  0.75654916  0.99998454  0.48684950     0.23500
C53         C  0.74714179  0.02594005  0.53145646    -0.51300
C54         C  0.76254975  0.02620285  0.50606681     0.12700
C55         C  0.70938880  0.99730366  0.50856373    -0.50900
C56         C  0.72384868  0.99788533  0.48326170     0.13200
H57         H  0.75357345  0.95867126  0.55024479     0.17700
H58         H  0.76849037  0.00052876  0.46594772     0.03500
H59         H  0.75082683  0.04138700  0.54858592     0.18000
H60         H  0.68617607  0.99521491  0.50947775     0.17800
C61         C  0.01361565  0.78431943  0.51974754     0.89600
C62         C  0.99058523  0.76469591  0.53444783    -0.50600
C63         C  0.97481965  0.74864339  0.51503962     0.12600
C64         C  0.98268983  0.75503807  0.48305408     0.23500
C65         C  0.03106270  0.76364727  0.50130010    -0.51300
C66         C  0.01455986  0.74774453  0.48250085     0.12700
C67         C  0.99775983  0.80283642  0.49818366    -0.50900
C68         C  0.98168702  0.78808363  0.47900840     0.13200
H69         H  0.98979806  0.76080183  0.55777949     0.17700
H70         H  0.96934132  0.74285913  0.46724240     0.03500
H71         H  0.05346038  0.75950491  0.50531464     0.18000
H72         H  0.99902467  0.82626762  0.49810803     0.17800
C73         C  0.22663814  0.53529845  0.01854220     0.89600
C74         C  0.24833329  0.52205427  0.03977290    -0.50600
C75         C  0.26449402  0.50147934  0.02713794     0.12600
C76         C  0.25690023  0.49562602  0.99520656     0.23500
C77         C  0.24491499  0.54629181  0.99259651    -0.51300
C78         C  0.26130379  0.52542963  0.98078826     0.12700
C79         C  0.20898801  0.51009286  0.00721168    -0.50900
C80         C  0.22440749  0.48943654  0.99490867     0.13200
H81         H  0.25231016  0.53000334  0.06149903     0.17700
H82         H  0.26968980  0.47863808  0.98507894     0.03500
H83         H  0.24720664  0.56891394  0.98654647     0.18000
H84         H  0.18571826  0.50923569  0.00763382     0.17800
O85         O  0.02547934  0.55249411  0.00453781    -0.69800
O86         O  0.96510807  0.50880633  0.95759473    -0.70800
O87         O  0.96658162  0.53568203  0.01349567    -0.59400
O88         O  0.02419000  0.52614338  0.94867285    -0.67800
O89         O  0.03901051  0.48578314  0.96928379    -0.67400
O90         O  0.98085692  0.49509241  0.03411518    -0.58600
O91         O  0.97951854  0.46841640  0.97851244    -0.71100
O92         O  0.03930077  0.51188933  0.02549783    -0.69900
Cu93       Cu  0.99487665  0.53215603  0.98030929     1.04600
Cu94       Cu  0.01011565  0.48882273  0.00241655     1.04300
C95         C  0.04157965  0.53924656  0.02257058     0.96400
C96         C  0.96259347  0.48149304  0.96120964     0.95500
C97         C  0.96492022  0.51705860  0.03426318     0.87700
C98         C  0.04103819  0.50490942  0.94893430     0.94000
N99         N  0.90458649  0.45412773  0.90856195    -0.00300
C100        C  0.90337705  0.44877979  0.87968231     0.02300
C101        C  0.88372300  0.42705249  0.87399067    -0.20600
C102        C  0.87164869  0.41916511  0.90018844    -0.20800
C103        C  0.88431042  0.43640553  0.92095866     0.02200
H104        H  0.87715624  0.41946269  0.85283888     0.15900
H105        H  0.85314100  0.40496461  0.90315996     0.16000
C106        C  0.98840184  0.52744707  0.26566169     0.89600
C107        C  0.01461606  0.53542091  0.24676019    -0.50600
C108        C  0.02338970  0.51342571  0.22981328     0.12600
C109        C  0.00589383  0.48530128  0.23443523     0.23500
C110        C  0.96583496  0.51632973  0.24409733    -0.51300
C111        C  0.97534210  0.49461384  0.22697983     0.12700
C112        C  0.99679836  0.50148788  0.28352796    -0.50900
C113        C  0.00609790  0.47949684  0.26763619     0.13200
H114        H  0.02289348  0.55736792  0.24417972     0.17700
H115        H  0.01347784  0.46705239  0.22145766     0.03500
H116        H  0.94629292  0.52769778  0.23957130     0.18000
H117        H  0.99638750  0.50085416  0.30719512     0.17800
N118        N  0.91254417  0.55111752  0.08747572    -0.00300
C119        C  0.92023958  0.54694033  0.11577698     0.02300
C120        C  0.90415745  0.56334983  0.13397617    -0.20600
C121        C  0.88552313  0.57801584  0.11671006    -0.20800
C122        C  0.89092812  0.57014128  0.08854003     0.02200
H123        H  0.90475153  0.56329570  0.15750179     0.15900
H124        H  0.86835324  0.59123191  0.12411885     0.16000
N125        N  0.10603319  0.48254002  0.90304277    -0.00300
C126        C  0.10595698  0.49179153  0.87466855     0.02300
C127        C  0.13001061  0.48322749  0.86024134    -0.20600
C128        C  0.14590601  0.46834586  0.87995073    -0.20800
C129        C  0.13096413  0.46819431  0.90573081     0.02200
H130        H  0.13559628  0.48774661  0.83775645     0.15900
H131        H  0.16681492  0.45966938  0.87624863     0.16000
O132        O  0.52527873  0.55260590  0.00791070    -0.69800
O133        O  0.46863459  0.48527005  0.01639667    -0.70800
O134        O  0.52852500  0.49492174  0.02973845    -0.59400
O135        O  0.46542250  0.54306591  0.99442287    -0.67800
O136        O  0.47821593  0.52787911  0.95102577    -0.67400
O137        O  0.54049979  0.47929753  0.98624700    -0.58600
O138        O  0.48125241  0.47027805  0.97286276    -0.71100
O139        O  0.53852789  0.53717104  0.96476174    -0.69900
Cu140      Cu  0.49658052  0.51948859  0.01362974     1.04600
Cu141      Cu  0.50999279  0.50324715  0.96718077     1.04300
C142        C  0.54140888  0.55507276  0.98550632     0.96400
C143        C  0.46582116  0.46732205  0.99572400     0.95500
C144        C  0.54441755  0.47969013  0.01373903     0.87700
C145        C  0.46162547  0.54249102  0.96689030     0.94000
N146        N  0.61109456  0.59827304  0.96912739    -0.00300
C147        C  0.63890660  0.59273823  0.96319189     0.02300
C148        C  0.65622232  0.61685548  0.96649935    -0.20600
C149        C  0.63884333  0.63845206  0.97449217    -0.20800
C150        C  0.61150933  0.62678438  0.97590496     0.02200
H151        H  0.67918398  0.61843497  0.96373055     0.15900
H152        H  0.64538456  0.66053770  0.97850616     0.16000
C153        C  0.49740329  0.24119362  0.96905503     0.89600
C154        C  0.47110458  0.25976198  0.97344237    -0.50600
C155        C  0.47202041  0.27469747  0.99888847     0.12600
C156        C  0.49829936  0.26859311  0.01784639     0.23500
C157        C  0.52308163  0.26236168  0.97182072    -0.51300
C158        C  0.52316377  0.27708201  0.99735839     0.12700
C159        C  0.49861998  0.22159794  0.99565932    -0.50900
C160        C  0.49906280  0.23554215  0.02111066     0.13200
H161        H  0.45542444  0.26360238  0.95650073     0.17700
H162        H  0.49863213  0.28014842  0.03880551     0.03500
H163        H  0.53809777  0.26710537  0.95428360     0.18000
H164        H  0.49924264  0.19825161  0.99450349     0.17800
O165        O  0.45915525  0.00037441  0.96617860    -0.69800
O166        O  0.49069351  0.05092341  0.03029422    -0.70800
O167        O  0.49099671  0.05323647  0.96687606    -0.59400
O168        O  0.45893859  0.99784896  0.02891236    -0.67800
O169        O  0.49855146  0.97274513  0.02832367    -0.67400
O170        O  0.53071839  0.02829964  0.96683731    -0.58600
O171        O  0.53031983  0.02584178  0.03021502    -0.71100
O172        O  0.49884064  0.97535561  0.96578579    -0.69900
Cu173      Cu  0.47359875  0.02647841  0.99809286     1.04600
Cu174      Cu  0.51607093  0.99987511  0.99778511     1.04300
C175        C  0.47388502  0.98015850  0.95575367     0.96400
C176        C  0.51523985  0.04560438  0.04107671     0.95500
C177        C  0.51573689  0.04863823  0.95629711     0.87700
C178        C  0.47355054  0.97677429  0.03846801     0.94000
N179        N  0.45631861  0.91899861  0.90358823    -0.00300
C180        C  0.45281672  0.89005055  0.90681586     0.02300
C181        C  0.43314674  0.87943566  0.88720097    -0.20600
C182        C  0.42460086  0.90247130  0.87067958    -0.20800
C183        C  0.43931499  0.92639035  0.88079878     0.02200
H184        H  0.42714826  0.85708250  0.88393802     0.15900
H185        H  0.41124630  0.90140497  0.85149383     0.16000
C186        C  0.50990800  0.96496848  0.27237161     0.89600
C187        C  0.48393150  0.95531081  0.25405938    -0.50600
C188        C  0.47318374  0.97705449  0.23698438     0.12600
C189        C  0.48841995  0.00640075  0.24137337     0.23500
C190        C  0.53111378  0.97840699  0.24991230    -0.51300
C191        C  0.51940138  0.99990902  0.23332798     0.12700
C192        C  0.49979618  0.98984091  0.29013807    -0.50900
C193        C  0.48876464  0.01150301  0.27442532     0.13200
H194        H  0.47784940  0.93281545  0.25132402     0.17700
H195        H  0.47907395  0.02423500  0.22842721     0.03500
H196        H  0.55216905  0.97005615  0.24585378     0.18000
H197        H  0.50140056  0.99044420  0.31374570     0.17800
N198        N  0.45695067  0.91257865  0.08984196    -0.00300
C199        C  0.45323106  0.88368754  0.08688243     0.02300
C200        C  0.43497763  0.87242878  0.10787660    -0.20600
C201        C  0.42763001  0.89490312  0.12499744    -0.20800
C202        C  0.44163792  0.91916501  0.11390539     0.02200
H203        H  0.42930752  0.84995566  0.11163781     0.15900
H204        H  0.41575519  0.89316073  0.14517539     0.16000
N205        N  0.52637925  0.10322301  0.89307822    -0.00300
C206        C  0.53982457  0.09231826  0.86959430     0.02300
C207        C  0.55015733  0.11422989  0.85156470    -0.20600
C208        C  0.54245701  0.13954354  0.86374191    -0.20800
C209        C  0.52763680  0.13221225  0.88874334     0.02200
H210        H  0.56005865  0.11197856  0.83048164     0.15900
H211        H  0.54602172  0.16093768  0.85459177     0.16000
O212        O  0.99033613  0.53468217  0.45150644    -0.69800
O213        O  0.96487229  0.47007066  0.50679574    -0.70800
O214        O  0.95827220  0.53192416  0.50374484    -0.59400
O215        O  0.99754827  0.47244655  0.45421747    -0.67800
O216        O  0.03625739  0.47884632  0.48132626    -0.67400
O217        O  0.99758032  0.53855927  0.52992260    -0.58600
O218        O  0.00376393  0.47690499  0.53355382    -0.71100
O219        O  0.02973863  0.54084881  0.47764398    -0.69900
Cu220      Cu  0.97638988  0.50202221  0.47815490     1.04600
Cu221      Cu  0.01822791  0.50895941  0.50639385     1.04300
C222        C  0.01364269  0.54869059  0.45660369     0.96400
C223        C  0.98028185  0.46311460  0.52867172     0.95500
C224        C  0.97182103  0.54506541  0.52400235     0.87700
C225        C  0.02316299  0.46575241  0.46078619     0.94000
N226        N  0.95092537  0.60053706  0.58039570    -0.00300
C227        C  0.93515173  0.62289333  0.57060225     0.02300
C228        C  0.91700643  0.63158890  0.59225939    -0.20600
C229        C  0.92238462  0.61489243  0.61640338    -0.20800
C230        C  0.94352915  0.59644239  0.60869006     0.02200
H231        H  0.90394586  0.65047530  0.59176520     0.15900
H232        H  0.91376287  0.61777222  0.63796274     0.16000
O233        O  0.49912745  0.04049814  0.52903437    -0.69800
O234        O  0.54538315  0.99954334  0.46746220    -0.70800
O235        O  0.50116178  0.04096506  0.46626537    -0.59400
O236        O  0.54387331  0.99947927  0.53077541    -0.67800
O237        O  0.51072375  0.96461737  0.53008206    -0.67400
O238        O  0.46763610  0.00644584  0.46558894    -0.58600
O239        O  0.51187776  0.96501371  0.46710891    -0.71100
O240        O  0.46611541  0.00549980  0.52817083    -0.69900
Cu241      Cu  0.52353238  0.02133958  0.49841058     1.04600
Cu242      Cu  0.48804667  0.98415284  0.49773134     1.04300
C243        C  0.47539599  0.02941949  0.53829205     0.96400
C244        C  0.53541336  0.97584684  0.45723861     0.95500
C245        C  0.47793800  0.03044314  0.45568199     0.87700
C246        C  0.53368338  0.97556132  0.54094378     0.94000
N247        N  0.58812132  0.95078355  0.59845044    -0.00300
C248        C  0.57734065  0.93066535  0.61763530     0.02300
C249        C  0.59912177  0.91458356  0.62923159    -0.20600
C250        C  0.62420649  0.92575939  0.61800880    -0.20800
C251        C  0.61692601  0.94817159  0.59979585     0.02200
H252        H  0.59734400  0.89899904  0.64693976     0.15900
H253        H  0.64554776  0.91978521  0.62436659     0.16000
C254        C  0.23265640  0.05027282  0.48713970     0.89600
C255        C  0.25280958  0.04637190  0.51328525    -0.50600
C256        C  0.26950823  0.02275421  0.51140965     0.12600
C257        C  0.26369183  0.00482883  0.48423257     0.23500
C258        C  0.25242408  0.05065929  0.46053063    -0.51300
C259        C  0.26935812  0.02701925  0.45939152     0.12700
C260        C  0.21528542  0.02249262  0.48542944    -0.50900
C261        C  0.23103598  0.99866009  0.48434811     0.13200
H262        H  0.25579633  0.06247505  0.52993358     0.17700
H263        H  0.27673488  0.98525064  0.48300119     0.03500
H264        H  0.25567832  0.06954866  0.44658802     0.18000
H265        H  0.19206363  0.02155112  0.48704760     0.17800
O266        O  0.96919051  0.97656575  0.50533990    -0.69800
O267        O  0.01947593  0.03950263  0.54054279    -0.70800
O268        O  0.96810786  0.03823958  0.50650133    -0.59400
O269        O  0.02083198  0.97713050  0.53909733    -0.67800
O270        O  0.04775741  0.97991760  0.49949894    -0.67400
O271        O  0.99521534  0.04089332  0.46699983    -0.58600
O272        O  0.04646462  0.04240230  0.50098830    -0.71100
O273        O  0.99608588  0.97905966  0.46569812    -0.69900
Cu274      Cu  0.99363821  0.00776158  0.52433287     1.04600
Cu275      Cu  0.02230826  0.01064714  0.48194570     1.04300
C276        C  0.97466074  0.96806192  0.47967488     0.96400
C277        C  0.04032538  0.05133090  0.52636969     0.95500
C278        C  0.97346565  0.04905318  0.48124786     0.87700
C279        C  0.04217611  0.96850595  0.52444050     0.94000
N280        N  0.91016798  0.92067136  0.45778857    -0.00300
C281        C  0.88195891  0.92619106  0.45493584     0.02300
C282        C  0.87005319  0.91099698  0.43233354    -0.20600
C283        C  0.89135933  0.89477898  0.42122837    -0.20800
C284        C  0.91557293  0.90049438  0.43749986     0.02200
H285        H  0.84770391  0.90984733  0.42628861     0.15900
H286        H  0.88849120  0.87790692  0.40547224     0.16000
C287        C  0.97771743  0.23143707  0.47567187     0.89600
C288        C  0.95943234  0.25269722  0.49257016    -0.50600
C289        C  0.97514649  0.26901681  0.51172811     0.12600
C290        C  0.00700086  0.26174791  0.51283317     0.23500
C291        C  0.00142063  0.25052055  0.46150629    -0.51300
C292        C  0.01632264  0.26704381  0.48110264     0.12700
C293        C  0.99253173  0.21352003  0.49863897    -0.50900
C294        C  0.00778881  0.22887679  0.51802022     0.13200
H295        H  0.93712357  0.25647034  0.48770978     0.17700
H296        H  0.01969293  0.27446069  0.52876053     0.03500
H297        H  0.00347100  0.25355267  0.43812981     0.18000
H298        H  0.99146797  0.19008683  0.49929392     0.17800
N299        N  0.90786301  0.09138271  0.45859278    -0.00300
C300        C  0.88022001  0.08295609  0.45446383     0.02300
C301        C  0.86870563  0.09713675  0.43088382    -0.20600
C302        C  0.88963637  0.11571023  0.42046624    -0.20800
C303        C  0.91323485  0.11227201  0.43806113     0.02200
H304        H  0.84667633  0.09605357  0.42372291     0.15900
H305        H  0.88676301  0.13235417  0.40406429     0.16000
N306        N  0.10258267  0.91554478  0.54013208    -0.00300
C307        C  0.13157428  0.91740726  0.54199179     0.02300
C308        C  0.14169510  0.89753613  0.56170884    -0.20600
C309        C  0.11836282  0.88206152  0.57182780    -0.20800
C310        C  0.09473354  0.89295524  0.55793795     0.02200
H311        H  0.16384299  0.89323400  0.56647528     0.15900
H312        H  0.11896741  0.86277262  0.58531403     0.16000
N313        N  0.41374991  0.05421262  0.58579263    -0.00300
C314        C  0.38553393  0.05806550  0.58071792     0.02300
C315        C  0.37489320  0.07864467  0.59864963    -0.20600
C316        C  0.39710609  0.08744676  0.61606284    -0.20800
C317        C  0.42056708  0.07193400  0.60816983     0.02200
H318        H  0.35291218  0.08514617  0.60022185     0.15900
H319        H  0.39549971  0.10143163  0.63454144     0.16000
N320        N  0.97203005  0.40995523  0.59299575    -0.00300
C321        C  0.95911512  0.38407346  0.58724219     0.02300
C322        C  0.95001321  0.37055870  0.61266419    -0.20600
C323        C  0.95775885  0.38829042  0.63496980    -0.20800
C324        C  0.97141786  0.41196504  0.62241488     0.02200
H325        H  0.94043250  0.34919538  0.61489865     0.15900
H326        H  0.95475208  0.38388284  0.65796154     0.16000
N327        N  0.09714956  0.10970344  0.54465781    -0.00300
C328        C  0.12611462  0.11127131  0.54564796     0.02300
C329        C  0.13545830  0.12974230  0.56690848    -0.20600
C330        C  0.11145359  0.14087157  0.57895428    -0.20800
C331        C  0.08825871  0.12894796  0.56450646     0.02200
H332        H  0.15734382  0.13633729  0.57140459     0.15900
H333        H  0.11117845  0.15866324  0.59383361     0.16000
N334        N  0.59195394  0.95037383  0.40325148    -0.00300
C335        C  0.62075472  0.94745550  0.40404214     0.02300
C336        C  0.62914222  0.92550854  0.38652864    -0.20600
C337        C  0.60482426  0.91476467  0.37369291    -0.20800
C338        C  0.58237718  0.93054254  0.38375638     0.02200
H339        H  0.65080004  0.91915547  0.38220953     0.15900
H340        H  0.60402778  0.89915547  0.35649125     0.16000
N341        N  0.01531954  0.61010998  0.39970729    -0.00300
C342        C  0.02992400  0.63452522  0.40734904     0.02300
C343        C  0.03701498  0.65089253  0.38294236    -0.20600
C344        C  0.02594310  0.63668391  0.35949640    -0.20800
C345        C  0.01244331  0.61218164  0.37041500    -0.00800
H346        H  0.04689302  0.67220917  0.38246737     0.15900
H347        H  0.02647616  0.64410624  0.33706984     0.16000
N348        N  0.59988527  0.42273566  0.03034020    -0.00300
C349        C  0.62398818  0.43072394  0.04497804     0.02300
C350        C  0.63571242  0.40718448  0.05870935    -0.20600
C351        C  0.61865019  0.38378030  0.05211112    -0.20800
C352        C  0.59715201  0.39382581  0.03450858     0.02200
H353        H  0.65577476  0.40671183  0.07040309     0.15900
H354        H  0.62233239  0.36161806  0.05829047     0.16000
N355        N  0.52447190  0.09824841  0.10431556    -0.00300
C356        C  0.53682073  0.08692889  0.12861193     0.02300
C357        C  0.54475045  0.10838352  0.14758844    -0.20600
C358        C  0.53693193  0.13386749  0.13500462    -0.20800
C359        C  0.52438446  0.12708114  0.10885061     0.02200
H360        H  0.55380670  0.10562624  0.16908006     0.15900
H361        H  0.53950611  0.15503908  0.14423801     0.16000
N362        N  0.40122916  0.59394668  0.94812394    -0.00300
C363        C  0.38016963  0.58295567  0.93091348     0.02300
C364        C  0.37022234  0.60416301  0.91239084    -0.20600
C365        C  0.38471352  0.62919749  0.91911484    -0.20800
C366        C  0.40312535  0.62241741  0.94138718     0.02200
H367        H  0.35169624  0.60256081  0.89835864     0.15900
H368        H  0.38027843  0.65048878  0.91066370     0.16000
N369        N  0.08964397  0.56536774  0.08434613    -0.00300
C370        C  0.08281743  0.57024893  0.11241933     0.02300
C371        C  0.09956003  0.59231871  0.12338369    -0.20600
C372        C  0.11798998  0.60092153  0.10153312    -0.20800
C373        C  0.11188637  0.58377882  0.07798251     0.02200
H374        H  0.10013565  0.59953354  0.14563106     0.15900
H375        H  0.13615084  0.61560816  0.10382630     0.16000
N376        N  0.04805727  0.40885084  0.40709750    -0.00300
C377        C  0.06278940  0.38725073  0.42000018     0.02300
C378        C  0.08233676  0.37647423  0.40079149    -0.20600
C379        C  0.07896984  0.39102603  0.37491851    -0.20800
C380        C  0.05757223  0.41027898  0.37921292     0.02200
H381        H  0.09509771  0.35759925  0.40408141     0.15900
H382        H  0.08918625  0.38625122  0.35451104     0.16000
N383        N  0.42203946  0.06066110  0.40317508    -0.00300
C384        C  0.39469300  0.06897955  0.40653507     0.02300
C385        C  0.38879442  0.09161424  0.38797351    -0.20600
C386        C  0.41308215  0.09699172  0.37188778    -0.20800
C387        C  0.43295799  0.07734741  0.38104434     0.02200
H388        H  0.36826941  0.10133513  0.38456343     0.15900
H389        H  0.41468810  0.11108295  0.35294607     0.16000
N390        N  0.39922029  0.42114465  0.01466059    -0.00300
C391        C  0.37125791  0.42628275  0.01976327     0.02300
C392        C  0.35419092  0.40255409  0.01368747    -0.20600
C393        C  0.37213341  0.38154654  0.00508464    -0.20800
C394        C  0.39947718  0.39327968  0.00609391     0.02200
H395        H  0.33121205  0.40051319  0.01605614     0.15900
H396        H  0.36603689  0.35954670  0.00014626     0.16000
C397        C  0.02401635  0.21319335  0.53933661    -0.15400
C398        C  0.03523874  0.19280302  0.55071173     0.08700
C399        C  0.04820412  0.16645717  0.55791150     0.10600
C400        C  0.06306201  0.14584130  0.56141749    -0.16200
C401        C  0.93339577  0.13600625  0.44113031    -0.15400
C402        C  0.94410070  0.15983787  0.44305079     0.08700
C403        C  0.95329579  0.18872782  0.44743105     0.10600
C404        C  0.96235672  0.21153568  0.45629569    -0.16200
C405        C  0.96571337  0.29616755  0.52280120    -0.15400
C406        C  0.96226958  0.32012722  0.53183865     0.08700
C407        C  0.96106984  0.34754486  0.54483495     0.10600
C408        C  0.96060408  0.36797450  0.56074950    -0.16200
C409        C  0.05196747  0.36872825  0.44315384    -0.15400
C410        C  0.04479980  0.34691954  0.45617095     0.08700
C411        C  0.03732624  0.31862402  0.46594392     0.10600
C412        C  0.02963071  0.29433802  0.47249696    -0.16200
C413        C  0.08001804  0.08915291  0.52818846    -0.13300
C414        C  0.05682984  0.07552166  0.54007048    -0.28500
H415        H  0.08803618  0.08200202  0.50743536     0.15700
H416        H  0.05008505  0.08173632  0.56161792     0.16300
C417        C  0.08437576  0.93566701  0.52483889    -0.13300
C418        C  0.06000836  0.94505596  0.53692741    -0.28500
H419        H  0.09229785  0.94601080  0.50494479     0.15700
H420        H  0.05330653  0.93585462  0.55778986     0.16300
C421        C  0.92807730  0.07661744  0.47713221    -0.13300
C422        C  0.95444491  0.07056260  0.46736949    -0.28500
H423        H  0.92025869  0.06603461  0.49692194     0.15700
H424        H  0.96127433  0.07953935  0.44647768     0.16300
C425        C  0.95601416  0.94594552  0.46527821    -0.13300
C426        C  0.93033645  0.93661195  0.47577224    -0.28500
H427        H  0.96249595  0.93902587  0.44387421     0.15700
H428        H  0.92282233  0.94510115  0.49618966     0.16300
C429        C  0.21313348  0.07413936  0.49013131    -0.15400
C430        C  0.19183823  0.08619494  0.49730649     0.08700
C431        C  0.16586686  0.09407665  0.51013967     0.10600
C432        C  0.14550187  0.10012475  0.52463359    -0.16200
C433        C  0.21624271  0.97155702  0.48979845    -0.15400
C434        C  0.19663031  0.95603864  0.49787929     0.08700
C435        C  0.17124975  0.94382147  0.51013927     0.10600
C436        C  0.15082789  0.93370676  0.52314667    -0.16200
C437        C  0.36710979  0.04120107  0.56212308    -0.15400
C438        C  0.34661997  0.03083836  0.54984305     0.08700
C439        C  0.31970265  0.02351801  0.53768455     0.10600
C440        C  0.29621741  0.02115615  0.52700715    -0.16200
C441        C  0.37227625  0.05315754  0.42180232    -0.15400
C442        C  0.34980065  0.04286008  0.43034153     0.08700
C443        C  0.32157146  0.03420803  0.43814043     0.10600
C444        C  0.29720573  0.02946829  0.44584220    -0.16200
C445        C  0.46341095  0.04684251  0.43199913    -0.13300
C446        C  0.43683072  0.04060967  0.42204694    -0.28500
H447        H  0.47436486  0.06618284  0.42377622     0.15700
H448        H  0.42482829  0.02255134  0.43164351     0.16300
C449        C  0.57576559  0.96892786  0.42194053    -0.13300
C450        C  0.55064284  0.96009073  0.43400944    -0.28500
H451        H  0.58592759  0.98868817  0.42944423     0.15700
H452        H  0.54132741  0.93957040  0.42753266     0.16300
C453        C  0.54813736  0.95992723  0.56531587    -0.13300
C454        C  0.57277767  0.96899933  0.57807407    -0.28500
H455        H  0.53863898  0.93937002  0.57222340     0.15700
H456        H  0.58318726  0.98878703  0.57019681     0.16300
C457        C  0.45852574  0.04488413  0.56042178    -0.13300
C458        C  0.43209136  0.03600869  0.56909762    -0.28500
H459        H  0.46721985  0.06520206  0.56825281     0.15700
H460        H  0.42271625  0.01661833  0.55981931     0.16300
C461        C  0.02210921  0.57468377  0.43886720    -0.13300
C462        C  0.00549463  0.58603000  0.41782292    -0.28500
H463        H  0.04267899  0.58496885  0.44337494     0.15700
H464        H  0.98552445  0.57508183  0.41224272     0.16300
C465        C  0.03833344  0.44231381  0.44576791    -0.13300
C466        C  0.02977147  0.42931794  0.42104095    -0.28500
H467        H  0.05851898  0.43597138  0.45526620     0.15700
H468        H  0.01090191  0.43671955  0.40972653     0.16300
C469        C  0.95721603  0.56808181  0.54010142    -0.13300
C470        C  0.96824348  0.58151258  0.56357342    -0.28500
H471        H  0.93584992  0.57350982  0.53299271     0.15700
H472        H  0.98865336  0.57491151  0.57232877     0.16300
C473        C  0.97049420  0.43878929  0.54804827    -0.13300
C474        C  0.98387303  0.43154425  0.57300531    -0.28500
H475        H  0.95099891  0.42716390  0.54216022     0.15700
H476        H  0.00228706  0.44434489  0.57992010     0.16300
C477        C  0.53105051  0.01035610  0.20589088    -0.15400
C478        C  0.53521474  0.02100285  0.18206200     0.08700
C479        C  0.53627721  0.03766869  0.15598915     0.10600
C480        C  0.53617399  0.05733367  0.13848876    -0.16200
C481        C  0.46057689  0.97078073  0.20892696    -0.15400
C482        C  0.45467240  0.96549504  0.18392875     0.08700
C483        C  0.45045116  0.95642805  0.15489975     0.10600
C484        C  0.44701534  0.94329402  0.13264488    -0.16200
C485        C  0.47902483  0.03604706  0.28994506    -0.15400
C486        C  0.47277474  0.05014217  0.31069963     0.08700
C487        C  0.46482640  0.06078100  0.33811324     0.10600
C488        C  0.45390860  0.06811017  0.36049599    -0.16200
C489        C  0.52164750  0.94370880  0.29284944    -0.15400
C490        C  0.53067641  0.93518219  0.31599480     0.08700
C491        C  0.54249115  0.93261315  0.34429243     0.10600
C492        C  0.55706745  0.93242236  0.36600370    -0.16200
C493        C  0.51287918  0.08349951  0.07919084    -0.13300
C494        C  0.52631426  0.06135176  0.06694740    -0.28500
H495        H  0.49388690  0.09184675  0.06886201     0.15700
H496        H  0.54625409  0.05432605  0.07639683     0.16300
C497        C  0.52723399  0.06570384  0.93090456    -0.13300
C498        C  0.51377963  0.08779155  0.91781125    -0.28500
H499        H  0.54769085  0.05941819  0.92219540     0.15700
H500        H  0.49417461  0.09555885  0.92718680     0.16300
C501        C  0.46100603  0.95738750  0.06152827    -0.13300
C502        C  0.47215033  0.93202986  0.06991233    -0.28500
H503        H  0.44088320  0.96360328  0.07105661     0.15700
H504        H  0.49106346  0.92451966  0.05896100     0.16300
C505        C  0.46128363  0.96250614  0.93207230    -0.13300
C506        C  0.47234829  0.93773759  0.92284912    -0.28500
H507        H  0.44091955  0.96912962  0.92325905     0.15700
H508        H  0.49155833  0.92978287  0.93309651     0.16300
C509        C  0.50072275  0.21868123  0.04754128    -0.15400
C510        C  0.50305062  0.19801060  0.06346994     0.08700
C511        C  0.50745165  0.17119046  0.07745399     0.10600
C512        C  0.51355175  0.14905746  0.08973217    -0.16200
C513        C  0.51430862  0.15367010  0.90590373    -0.15400
C514        C  0.50610980  0.17558767  0.91633177     0.08700
C515        C  0.49995776  0.20245506  0.92836139     0.10600
C516        C  0.49737436  0.22341134  0.94309850    -0.16200
C517        C  0.57667240  0.37457598  0.02104164    -0.15400
C518        C  0.56341058  0.35371913  0.01260680     0.08700
C519        C  0.55061303  0.32679939  0.00560186     0.10600
C520        C  0.53952754  0.30351573  0.00127427    -0.16200
C521        C  0.45743334  0.30144264  0.00168781    -0.15400
C522        C  0.44839305  0.32543959  0.00300011     0.08700
C523        C  0.43741899  0.35343377  0.00378155     0.10600
C524        C  0.42368582  0.37498727  0.00446766    -0.16200
C525        C  0.44431552  0.44316304  0.99740780    -0.13300
C526        C  0.42270242  0.44196058  0.01685396    -0.28500
H527        H  0.44482489  0.42721877  0.98047244     0.15700
H528        H  0.42091347  0.45920073  0.03232312     0.16300
C529        C  0.43775887  0.55800952  0.95258358    -0.13300
C530        C  0.42164723  0.57800415  0.96528182    -0.28500
H531        H  0.43388312  0.55350343  0.92980045     0.15700
H532        H  0.42645731  0.58470388  0.98727903     0.16300
C533        C  0.56387340  0.57850830  0.98447952    -0.13300
C534        C  0.58728427  0.57763781  0.96735658    -0.28500
H535        H  0.56238050  0.59548880  0.00026819     0.15700
H536        H  0.58965820  0.55919852  0.95341046     0.16300
C537        C  0.56748924  0.46275910  0.02754983    -0.13300
C538        C  0.58031645  0.44076017  0.01448484    -0.28500
H539        H  0.57304156  0.46743011  0.04993877     0.15700
H540        H  0.57319699  0.43415334  0.99308102     0.16300
C541        C  0.03778842  0.51969114  0.20262282    -0.15400
C542        C  0.04640279  0.52704274  0.17886163     0.08700
C543        C  0.05566455  0.53862832  0.15177978     0.10600
C544        C  0.06580420  0.55153419  0.13113361    -0.16200
C545        C  0.96510677  0.49288401  0.19742993    -0.15400
C546        C  0.95835757  0.49779243  0.17256240     0.08700
C547        C  0.94953728  0.51018955  0.14590063     0.10600
C548        C  0.93863211  0.52549168  0.12786647    -0.16200
C549        C  0.01759047  0.45530962  0.28311756    -0.15400
C550        C  0.02606530  0.44208032  0.30402109     0.08700
C551        C  0.03511865  0.43242240  0.33173191     0.10600
C552        C  0.04396507  0.42440516  0.35504664    -0.16200
C553        C  0.98000285  0.55036790  0.28503671    -0.15400
C554        C  0.97977410  0.56533860  0.30611794     0.08700
C555        C  0.98641681  0.57981303  0.33200137     0.10600
C556        C  0.99664031  0.59282142  0.35204303    -0.16200
C557        C  0.06252814  0.55614332  0.04023027    -0.13300
C558        C  0.07436330  0.54609898  0.06505729    -0.28500
H559        H  0.06641767  0.57857825  0.03407048     0.15700
H560        H  0.06850620  0.52457873  0.07293662     0.16300
C561        C  0.06284563  0.50316134  0.92529856    -0.13300
C562        C  0.08452403  0.48447430  0.92584591    -0.28500
H563        H  0.06138089  0.51871996  0.90765280     0.15700
H564        H  0.08635803  0.47026519  0.94470645     0.16300
C565        C  0.94561685  0.52118913  0.05955937    -0.13300
C566        C  0.92717123  0.54303935  0.06100845    -0.28500
H567        H  0.94767021  0.50632040  0.07766219     0.15700
H568        H  0.92430395  0.55649507  0.04179623     0.16300
C569        C  0.93975395  0.46430723  0.94627500    -0.13300
C570        C  0.92458822  0.47347744  0.92305699    -0.28500
H571        H  0.93595744  0.44237190  0.95415216     0.15700
H572        H  0.92965329  0.49439093  0.91321424     0.16300
C573        C  0.20702389  0.55620249  0.03055582    -0.15400
C574        C  0.18497921  0.56694712  0.03786617     0.08700
C575        C  0.15699328  0.57411398  0.04631029     0.10600
C576        C  0.13405102  0.57846632  0.05717706    -0.16200
C577        C  0.14469880  0.45929539  0.93226531    -0.15400
C578        C  0.16355985  0.45534230  0.94963157     0.08700
C579        C  0.18906624  0.45747292  0.96595966     0.10600
C580        C  0.20914678  0.46742276  0.97916480    -0.16200
C581        C  0.36076146  0.55985651  0.93975640    -0.15400
C582        C  0.33885980  0.54724738  0.94676865     0.08700
C583        C  0.31094418  0.53814856  0.95543467     0.10600
C584        C  0.28732985  0.53242877  0.96489427    -0.16200
C585        C  0.35922311  0.45226042  0.03037271    -0.15400
C586        C  0.34138185  0.46904297  0.03740881     0.08700
C587        C  0.31527465  0.48311208  0.04110926     0.10600
C588        C  0.29146757  0.49217213  0.03861519    -0.16200
C589        C  0.03033843  0.80364927  0.53865760    -0.15400
C590        C  0.04177906  0.82555126  0.54724715     0.08700
C591        C  0.05497253  0.85291010  0.55195792     0.10600
C592        C  0.06978416  0.87444034  0.55445337    -0.16200
C593        C  0.93642052  0.87836825  0.44049519    -0.15400
C594        C  0.94714580  0.85507013  0.44277113     0.08700
C595        C  0.95616031  0.82660662  0.44812991     0.10600
C596        C  0.96552783  0.80467992  0.45834837    -0.16200
C597        C  0.02942549  0.64821834  0.43519760    -0.15400
C598        C  0.02875542  0.66823874  0.45157465     0.08700
C599        C  0.02694858  0.69588763  0.46388655     0.10600
C600        C  0.02331301  0.72013906  0.47198542    -0.16200
C601        C  0.96270252  0.72061576  0.52323770    -0.15400
C602        C  0.95605948  0.69576846  0.52878477     0.08700
C603        C  0.94994783  0.66662983  0.53693069     0.10600
C604        C  0.94415867  0.64363316  0.54850576    -0.16200
C605        C  0.78946331  0.04179556  0.50294327    -0.15400
C606        C  0.81357246  0.05018516  0.49776143     0.08700
C607        C  0.84123307  0.05832826  0.48777133     0.10600
C608        C  0.86217416  0.06728708  0.47490041    -0.16200
C609        C  0.79168309  0.96150004  0.50406681    -0.15400
C610        C  0.81581439  0.95463474  0.49874106     0.08700
C611        C  0.84338327  0.94806923  0.48853697     0.10600
C612        C  0.86418452  0.94043759  0.47551707    -0.16200
C613        C  0.70791160  0.99385565  0.45681405    -0.15400
C614        C  0.68804326  0.98775984  0.44119318     0.08700
C615        C  0.66228880  0.97760540  0.42847945     0.10600
C616        C  0.64130717  0.96578851  0.41854820    -0.16200
C617        C  0.63828555  0.96821407  0.58852984    -0.15400
C618        C  0.66024286  0.98104161  0.58236494     0.08700
C619        C  0.68768991  0.99151827  0.57404274     0.10600
C620        C  0.70958210  0.99688708  0.56099752    -0.16200
C621        C  0.52514293  0.02127322  0.78956872    -0.15400
C622        C  0.53018688  0.03075566  0.81339819     0.08700
C623        C  0.53360476  0.04558241  0.83989835     0.10600
C624        C  0.53614634  0.06375578  0.85825292    -0.16200
C625        C  0.44321379  0.95136489  0.86204599    -0.15400
C626        C  0.44558665  0.96576648  0.84002090     0.08700
C627        C  0.44905411  0.97642401  0.81115041     0.10600
C628        C  0.45482027  0.98258236  0.78615422    -0.16200
C629        C  0.47351887  0.04552030  0.70197086    -0.15400
C630        C  0.46556880  0.05739550  0.67997903     0.08700
C631        C  0.45563178  0.06433212  0.65170391     0.10600
C632        C  0.44317329  0.06775181  0.62895669    -0.16200
C633        C  0.55214491  0.93409196  0.63505702    -0.15400
C634        C  0.53762853  0.93688770  0.65647158     0.08700
C635        C  0.52599306  0.94284751  0.68405822     0.10600
C636        C  0.51718796  0.95356916  0.70594078    -0.16200
C637        C  0.04646629  0.53010163  0.79031261    -0.15400
C638        C  0.06020478  0.52780573  0.81239457     0.08700
C639        C  0.07250173  0.51917394  0.83911782     0.10600
C640        C  0.08486973  0.50789830  0.85911511    -0.16200
C641        C  0.94766133  0.50085107  0.78822218    -0.15400
C642        C  0.93404512  0.49059678  0.80823721     0.08700
C643        C  0.92409781  0.47809884  0.83464173     0.10600
C644        C  0.91631244  0.46599076  0.85673502    -0.16200
C645        C  0.00173028  0.47590583  0.70848145    -0.15400
C646        C  0.99880539  0.46357270  0.68574227     0.08700
C647        C  0.99230283  0.44921681  0.65958580     0.10600
C648        C  0.98410841  0.43443433  0.63977755    -0.16200
C649        C  0.98459231  0.55789290  0.70595704    -0.15400
C650        C  0.97868586  0.56537072  0.68147441     0.08700
C651        C  0.96972775  0.57254282  0.65294305     0.10600
C652        C  0.95937488  0.58083699  0.63038105    -0.16200
C653        C  0.49346592  0.79420750  0.03728582    -0.15400
C654        C  0.48815347  0.81741566  0.04711333     0.08700
C655        C  0.47929565  0.84438391  0.05726510     0.10600
C656        C  0.46898465  0.86517061  0.06819914    -0.16200
C657        C  0.49511308  0.79886400  0.95337347    -0.15400
C658        C  0.48990032  0.82275488  0.94448474     0.08700
C659        C  0.48069783  0.85013251  0.93502539     0.10600
C660        C  0.46968608  0.87111622  0.92458801    -0.16200
C661        C  0.44819000  0.71395993  0.98760752    -0.15400
C662        C  0.43400747  0.69308491  0.98101670     0.08700
C663        C  0.42410441  0.66626328  0.97053056     0.10600
C664        C  0.41640656  0.64439357  0.95881917    -0.16200
C665        C  0.58796975  0.64518622  0.98146865    -0.15400
C666        C  0.57514593  0.66687975  0.98592405     0.08700
C667        C  0.56344446  0.69426429  0.99024301     0.10600
C668        C  0.55021912  0.71605556  0.99279086    -0.16200
C669        C  0.79832448  0.56196962  0.03144238    -0.15400
C670        C  0.81995026  0.57256108  0.04135694     0.08700
C671        C  0.84770376  0.57637303  0.05304633     0.10600
C672        C  0.86997444  0.57490130  0.06615116    -0.16200
C673        C  0.80296509  0.47081214  0.98430211    -0.15400
C674        C  0.82314551  0.45823700  0.97494464     0.08700
C675        C  0.84868924  0.44889219  0.96216225     0.10600
C676        C  0.86839142  0.44294201  0.94666320    -0.16200
C677        C  0.71434519  0.49320112  0.03304288    -0.15400
C678        C  0.68985533  0.48489902  0.03650222     0.08700
C679        C  0.66194202  0.47240099  0.03849506     0.10600
C680        C  0.64098284  0.45674818  0.04053223    -0.16200
C681        C  0.65139673  0.56544978  0.95731625    -0.15400
C682        C  0.67091381  0.54915634  0.95507006     0.08700
C683        C  0.69856437  0.53760517  0.95677474     0.10600
C684        C  0.72279454  0.53157643  0.96298173    -0.16200
loop_ 
_geom_bond_atom_site_label_1 
_geom_bond_atom_site_label_2 
_geom_bond_distance 
_geom_bond_site_symmetry_2 
_ccdc_geom_bond_type 
C1            C2   1.539   1_554  S
C1            C7   1.515       .  S
C1            C5   1.542       .  S
C1          C669   1.468       .  S
C2            H9   1.087       .  S
C2            C3   1.373       .  D
C3            C4   1.538       .  S
C3          C684   1.447       .  S
C4            C8   1.545       .  S
C4            C6   1.539   1_556  S
C4           H10   1.112       .  S
C5           H11   1.086       .  S
C5            C6   1.372       .  D
C6          C677   1.448       .  S
C7           H12   1.089       .  S
C7            C8   1.346   1_554  D
C8          C673   1.441       .  S
C13          C14   1.543       .  S
C13          C19   1.514       .  S
C13          C17   1.542   1_556  S
C13         C668   1.468       .  S
C14          H21   1.086       .  S
C14          C15   1.371       .  D
C15          C16   1.535       .  S
C15         C657   1.445       .  S
C16          C20   1.539       .  S
C16          C18   1.537   1_556  S
C16          H22   1.112       .  S
C17          H23   1.086       .  S
C17          C18   1.374       .  D
C18         C653   1.446       .  S
C19          H24   1.089       .  S
C19          C20   1.346       .  D
C20         C661   1.436       .  S
C25          C26   1.543       .  S
C25          C31   1.516   1_455  S
C25          C29   1.540       .  S
C25         C637   1.466       .  S
C26          H33   1.086       .  S
C26          C27   1.369       .  D
C27          C28   1.533   1_455  S
C27         C645   1.444       .  S
C28          C32   1.539       .  S
C28          C30   1.538       .  S
C28          H34   1.112       .  S
C29          H35   1.086       .  S
C29          C30   1.374   1_455  D
C30         C649   1.444       .  S
C31          H36   1.089       .  S
C31          C32   1.347       .  D
C32         C641   1.437       .  S
C37          C38   1.544       .  S
C37          C43   1.512   1_565  S
C37          C41   1.539       .  S
C37         C636   1.469       .  S
C38          H45   1.086       .  S
C38          C39   1.373   1_565  D
C39          C40   1.539       .  S
C39         C621   1.448       .  S
C40          C44   1.546       .  S
C40          C42   1.540   1_545  S
C40          H46   1.112       .  S
C41          H47   1.086       .  S
C41          C42   1.373       .  D
C42         C628   1.448       .  S
C43          H48   1.089       .  S
C43          C44   1.345       .  D
C44         C629   1.441       .  S
C49          C50   1.543       .  S
C49          C55   1.517       .  S
C49          C53   1.539   1_565  S
C49         C620   1.465       .  S
C50          H57   1.086       .  S
C50          C51   1.370       .  D
C51          C52   1.535       .  S
C51         C609   1.445       .  S
C52          C56   1.540       .  S
C52          C54   1.538   1_565  S
C52          H58   1.112   1_565  S
C53          H59   1.086       .  S
C53          C54   1.373       .  D
C54         C605   1.443       .  S
C55          H60   1.089       .  S
C55          C56   1.346       .  D
C56         C613   1.440       .  S
C61          C62   1.543   1_455  S
C61          C67   1.510   1_455  S
C61          C65   1.543       .  S
C61         C589   1.472       .  S
C62          H69   1.086       .  S
C62          C63   1.376       .  D
C63          C64   1.539       .  S
C63         C601   1.452       .  S
C64          C68   1.547       .  S
C64          C66   1.539   1_655  S
C64          H70   1.112       .  S
C65          H71   1.086       .  S
C65          C66   1.372       .  D
C66         C600   1.448       .  S
C67          H72   1.090       .  S
C67          C68   1.345       .  D
C68         C596   1.441       .  S
C73          C74   1.542       .  S
C73          C79   1.516       .  S
C73          C77   1.541   1_554  S
C73         C573   1.469       .  S
C74          H81   1.086       .  S
C74          C75   1.372       .  D
C75          C76   1.539   1_554  S
C75         C588   1.442       .  S
C76          C80   1.541       .  S
C76          C78   1.535       .  S
C76          H82   1.112       .  S
C77          H83   1.086       .  S
C77          C78   1.371       .  D
C78         C584   1.448       .  S
C79          H84   1.089       .  S
C79          C80   1.348   1_554  D
C80         C580   1.439       .  S
O85         Cu93   2.038   1_454  S
O85          C95   1.282       .  A
O86         Cu93   2.043       .  S
O86          C96   1.281       .  A
O87         Cu93   2.033   1_554  S
O87          C97   1.280       .  A
O88         Cu93   2.028   1_455  S
O88          C98   1.279       .  A
O89         Cu94   2.047   1_556  S
O89          C98   1.282       .  A
O90         Cu94   2.031   1_655  S
O90          C97   1.280       .  A
O91         Cu94   2.031   1_656  S
O91          C96   1.280       .  A
O92         Cu94   2.026       .  S
O92          C95   1.279       .  A
Cu93        Cu94   2.368   1_656  S
C95         C557   1.490       .  S
C96         C569   1.493       .  S
C97         C565   1.491       .  S
C98         C561   1.496       .  S
N99         C103   1.360       .  A
N99         C100   1.357       .  A
N99         C570   1.452       .  S
C100        C101   1.377       .  A
C100        C644   1.438       .  S
C101        C102   1.372       .  A
C101        H104   1.083       .  S
C102        C103   1.381       .  A
C102        H105   1.083       .  S
C103        C676   1.439       .  S
C106        C107   1.538   1_655  S
C106        C112   1.509       .  S
C106        C110   1.535       .  S
C106        C553   1.462       .  S
C107        H114   1.087       .  S
C107        C108   1.368       .  D
C108        C109   1.537       .  S
C108        C541   1.443       .  S
C109        C113   1.547       .  S
C109        C111   1.542   1_455  S
C109        H115   1.111       .  S
C110        H116   1.087       .  S
C110        C111   1.374       .  D
C111        C545   1.444       .  S
C112        H117   1.089       .  S
C112        C113   1.348   1_655  D
C113        C549   1.437       .  S
N118        C122   1.362       .  A
N118        C119   1.363       .  A
N118        C566   1.457       .  S
C119        C120   1.379       .  A
C119        C548   1.439       .  S
C120        C121   1.367       .  A
C120        H123   1.083       .  S
C121        C122   1.378       .  A
C121        H124   1.083       .  S
C122        C672   1.441       .  S
N125        C129   1.364       .  A
N125        C126   1.368       .  A
N125        C562   1.460       .  S
C126        C127   1.378       .  A
C126        C640   1.438       .  S
C127        C128   1.364       .  A
C127        H130   1.083       .  S
C128        C129   1.377       .  A
C128        H131   1.083       .  S
C129        C577   1.439       .  S
O132       Cu140   2.031       .  S
O132        C142   1.280   1_554  A
O133       Cu140   2.036       .  S
O133        C143   1.280   1_554  A
O134       Cu140   2.037       .  S
O134        C144   1.281       .  A
O135       Cu140   2.039   1_556  S
O135        C145   1.280       .  A
O136       Cu141   2.034       .  S
O136        C145   1.281       .  A
O137       Cu141   2.024       .  S
O137        C144   1.278   1_556  A
O138       Cu141   2.027       .  S
O138        C143   1.279       .  A
O139       Cu141   2.042       .  S
O139        C142   1.282       .  A
Cu140      Cu141   2.369   1_554  S
C142        C533   1.495       .  S
C143        C525   1.490       .  S
C144        C537   1.489       .  S
C145        C529   1.492       .  S
N146        C150   1.367       .  A
N146        C147   1.362       .  A
N146        C534   1.455       .  S
C147        C148   1.377       .  A
C147        C681   1.440       .  S
C148        C149   1.364       .  A
C148        H151   1.083       .  S
C149        C150   1.378       .  A
C149        H152   1.083       .  S
C150        C665   1.438       .  S
C153        C154   1.537       .  S
C153        C159   1.516       .  S
C153        C157   1.540       .  S
C153        C516   1.464       .  S
C154        H161   1.086       .  S
C154        C155   1.371       .  D
C155        C156   1.537   1_556  S
C155        C521   1.442   1_556  S
C156        C160   1.543       .  S
C156        C158   1.537   1_554  S
C156        H162   1.112       .  S
C157        H163   1.086       .  S
C157        C158   1.370       .  D
C158        C520   1.445   1_556  S
C159        H164   1.089       .  S
C159        C160   1.348   1_556  D
C160        C509   1.439       .  S
O165       Cu173   2.026       .  S
O165        C175   1.280   1_545  A
O166       Cu173   2.034   1_554  S
O166        C176   1.280       .  A
O167       Cu173   2.040       .  S
O167        C177   1.281       .  A
O168       Cu173   2.036   1_564  S
O168        C178   1.281       .  A
O169       Cu174   2.031   1_554  S
O169        C178   1.279       .  A
O170       Cu174   2.033   1_545  S
O170        C177   1.281       .  A
O171       Cu174   2.037   1_544  S
O171        C176   1.281       .  A
O172       Cu174   2.031       .  S
O172        C175   1.280       .  A
Cu173      Cu174   2.369   1_545  S
C175        C505   1.488       .  S
C176        C494   1.494       .  S
C177        C497   1.494       .  S
C178        C501   1.491       .  S
N179        C183   1.361       .  A
N179        C180   1.357       .  A
N179        C506   1.449       .  S
C180        C181   1.377       .  A
C180        C660   1.442       .  S
C181        C182   1.371       .  A
C181        H184   1.083       .  S
C182        C183   1.381       .  A
C182        H185   1.083       .  S
C183        C625   1.443       .  S
C186        C187   1.541       .  S
C186        C192   1.513       .  S
C186        C190   1.546       .  S
C186        C489   1.471       .  S
C187        H194   1.086       .  S
C187        C188   1.375       .  D
C188        C189   1.540   1_565  S
C188        C481   1.450       .  S
C189        C193   1.543       .  S
C189        C191   1.535   1_545  S
C189        H195   1.112       .  S
C190        H196   1.086       .  S
C190        C191   1.373       .  D
C191        C477   1.447   1_565  S
C192        H197   1.090       .  S
C192        C193   1.344   1_565  D
C193        C485   1.440       .  S
N198        C202   1.362       .  A
N198        C199   1.359       .  A
N198        C502   1.451       .  S
C199        C200   1.377       .  A
C199        C656   1.443       .  S
C200        C201   1.370       .  A
C200        H203   1.083       .  S
C201        C202   1.380       .  A
C201        H204   1.083       .  S
C202        C484   1.443       .  S
N205        C209   1.359       .  A
N205        C206   1.362       .  A
N205        C498   1.452       .  S
C206        C207   1.381       .  A
C206        C624   1.441       .  S
C207        C208   1.369       .  A
C207        H210   1.083       .  S
C208        C209   1.377       .  A
C208        H211   1.083       .  S
C209        C513   1.438       .  S
O212       Cu220   2.030       .  S
O212        C222   1.280   1_655  A
O213       Cu220   2.032       .  S
O213        C223   1.280       .  A
O214       Cu220   2.038       .  S
O214        C224   1.282       .  A
O215       Cu220   2.051       .  S
O215        C225   1.281   1_655  A
O216       Cu221   2.029       .  S
O216        C225   1.280       .  A
O217       Cu221   2.030   1_655  S
O217        C224   1.279       .  A
O218       Cu221   2.032       .  S
O218        C223   1.280   1_455  A
O219       Cu221   2.033       .  S
O219        C222   1.281       .  A
Cu220      Cu221   2.368   1_655  S
C222        C461   1.492       .  S
C223        C473   1.491       .  S
C224        C469   1.492       .  S
C225        C465   1.495       .  S
N226        C230   1.356       .  A
N226        C227   1.361       .  A
N226        C470   1.449       .  S
C227        C228   1.382       .  A
C227        C604   1.445       .  S
C228        C229   1.372       .  A
C228        H231   1.083       .  S
C229        C230   1.377       .  A
C229        H232   1.083       .  S
C230        C652   1.441       .  S
O233       Cu241   2.044       .  S
O233        C243   1.282       .  A
O234       Cu241   2.050   1_565  S
O234        C244   1.282       .  A
O235       Cu241   2.030       .  S
O235        C245   1.280       .  A
O236       Cu241   2.039   1_565  S
O236        C246   1.280       .  A
O237       Cu242   2.042       .  S
O237        C246   1.282       .  A
O238       Cu242   2.043   1_545  S
O238        C245   1.281       .  A
O239       Cu242   2.029       .  S
O239        C244   1.280       .  A
O240       Cu242   2.025   1_545  S
O240        C243   1.279       .  A
Cu241      Cu242   2.367   1_545  S
C243        C457   1.494       .  S
C244        C450   1.497       .  S
C245        C445   1.493       .  S
C246        C453   1.497       .  S
N247        C251   1.358       .  A
N247        C248   1.363       .  A
N247        C454   1.455       .  S
C248        C249   1.382       .  A
C248        C633   1.440       .  S
C249        C250   1.369       .  A
C249        H252   1.083       .  S
C250        C251   1.376       .  A
C250        H253   1.083       .  S
C251        C617   1.440       .  S
C254        C255   1.540       .  S
C254        C260   1.512       .  S
C254        C258   1.534       .  S
C254        C429   1.464       .  S
C255        H262   1.087       .  S
C255        C256   1.368       .  D
C256        C257   1.535       .  S
C256        C440   1.444       .  S
C257        C261   1.548   1_545  S
C257        C259   1.545       .  S
C257        H263   1.111   1_545  S
C258        H264   1.086       .  S
C258        C259   1.373       .  D
C259        C444   1.446       .  S
C260        H265   1.089       .  S
C260        C261   1.348   1_545  D
C261        C433   1.441       .  S
O266       Cu274   2.033   1_565  S
O266        C276   1.280       .  A
O267       Cu274   2.035   1_455  S
O267        C277   1.281       .  A
O268       Cu274   2.039       .  S
O268        C278   1.280       .  A
O269       Cu274   2.042   1_465  S
O269        C279   1.282       .  A
O270       Cu275   2.040   1_565  S
O270        C279   1.280       .  A
O271       Cu275   2.029   1_655  S
O271        C278   1.280       .  A
O272       Cu275   2.045       .  S
O272        C277   1.281       .  A
O273       Cu275   2.041   1_665  S
O273        C276   1.282       .  A
Cu274      Cu275   2.367   1_655  S
C276        C425   1.495       .  S
C277        C414   1.496       .  S
C278        C422   1.492       .  S
C279        C418   1.497       .  S
N280        C284   1.363       .  A
N280        C281   1.358       .  A
N280        C426   1.452       .  S
C281        C282   1.377       .  A
C281        C612   1.441       .  S
C282        C283   1.370       .  A
C282        H285   1.083       .  S
C283        C284   1.381       .  A
C283        H286   1.083       .  S
C284        C593   1.441       .  S
C287        C288   1.544       .  S
C287        C293   1.514       .  S
C287        C291   1.540   1_655  S
C287        C404   1.470       .  S
C288        H295   1.086       .  S
C288        C289   1.374       .  D
C289        C290   1.538   1_655  S
C289        C405   1.449       .  S
C290        C294   1.544       .  S
C290        C292   1.538       .  S
C290        H296   1.112       .  S
C291        H297   1.086       .  S
C291        C292   1.373       .  D
C292        C412   1.448       .  S
C293        H298   1.089       .  S
C293        C294   1.345   1_655  D
C294        C397   1.440       .  S
N299        C303   1.362       .  A
N299        C300   1.356       .  A
N299        C421   1.452       .  S
C300        C301   1.377       .  A
C300        C608   1.440       .  S
C301        C302   1.370       .  A
C301        H304   1.083       .  S
C302        C303   1.380       .  A
C302        H305   1.083       .  S
C303        C401   1.442       .  S
N306        C310   1.364       .  A
N306        C307   1.360       .  A
N306        C417   1.455       .  S
C307        C308   1.377       .  A
C307        C436   1.443       .  S
C308        C309   1.370       .  A
C308        H311   1.083       .  S
C309        C310   1.381       .  A
C309        H312   1.083       .  S
C310        C592   1.443       .  S
N313        C317   1.362       .  A
N313        C314   1.357       .  A
N313        C458   1.450       .  S
C314        C315   1.377       .  A
C314        C437   1.442       .  S
C315        C316   1.371       .  A
C315        H318   1.083       .  S
C316        C317   1.381       .  A
C316        H319   1.083       .  S
C317        C632   1.441       .  S
N320        C324   1.359       .  A
N320        C321   1.363       .  A
N320        C474   1.450       .  S
C321        C322   1.381       .  A
C321        C408   1.444       .  S
C322        C323   1.370       .  A
C322        H325   1.083       .  S
C323        C324   1.377       .  A
C323        H326   1.083       .  S
C324        C648   1.442       .  S
N327        C331   1.362       .  A
N327        C328   1.357       .  A
N327        C413   1.454       .  S
C328        C329   1.376       .  A
C328        C432   1.438       .  S
C329        C330   1.370       .  A
C329        H332   1.083       .  S
C330        C331   1.382       .  A
C330        H333   1.083       .  S
C331        C400   1.440       .  S
N334        C338   1.365       .  A
N334        C335   1.359       .  A
N334        C449   1.455       .  S
C335        C336   1.376       .  A
C335        C616   1.440       .  S
C336        C337   1.369       .  A
C336        H339   1.083       .  S
C337        C338   1.381       .  A
C337        H340   1.083       .  S
C338        C492   1.443       .  S
N341        C345   1.356       .  A
N341        C342   1.361       .  A
N341        C462   1.450       .  S
C342        C343   1.382       .  A
C342        C597   1.441       .  S
C343        C344   1.369       .  A
C343        H346   1.083       .  S
C344        C345   1.376       .  A
C344        H347   1.083       .  S
C345        C556   1.436   1_455  S
N348        C352   1.357       .  A
N348        C349   1.360       .  A
N348        C538   1.447       .  S
C349        C350   1.381       .  A
C349        C680   1.443       .  S
C350        C351   1.371       .  A
C350        H353   1.083       .  S
C351        C352   1.378       .  A
C351        H354   1.083       .  S
C352        C517   1.442       .  S
N355        C359   1.360       .  A
N355        C356   1.363       .  A
N355        C493   1.452       .  S
C356        C357   1.380       .  A
C356        C480   1.442       .  S
C357        C358   1.368       .  A
C357        H360   1.083       .  S
C358        C359   1.377       .  A
C358        H361   1.083       .  S
C359        C512   1.439       .  S
N362        C366   1.355       .  A
N362        C363   1.359       .  A
N362        C530   1.450       .  S
C363        C364   1.382       .  A
C363        C581   1.442       .  S
C364        C365   1.372       .  A
C364        H367   1.083       .  S
C365        C366   1.377       .  A
C365        H368   1.083       .  S
C366        C664   1.438       .  S
N369        C373   1.359       .  A
N369        C370   1.355       .  A
N369        C558   1.448       .  S
C370        C371   1.378       .  A
C370        C544   1.439       .  S
C371        C372   1.372       .  A
C371        H374   1.083       .  S
C372        C373   1.381       .  A
C372        H375   1.083       .  S
C373        C576   1.441       .  S
N376        C380   1.358       .  A
N376        C377   1.361       .  A
N376        C466   1.453       .  S
C377        C378   1.381       .  A
C377        C409   1.442       .  S
C378        C379   1.370       .  A
C378        H381   1.083       .  S
C379        C380   1.377       .  A
C379        H382   1.083       .  S
C380        C552   1.439       .  S
N383        C387   1.361       .  A
N383        C384   1.356       .  A
N383        C446   1.452       .  S
C384        C385   1.378       .  A
C384        C441   1.442       .  S
C385        C386   1.372       .  A
C385        H388   1.083       .  S
C386        C387   1.381       .  A
C386        H389   1.083       .  S
C387        C488   1.441       .  S
N390        C394   1.361       .  A
N390        C391   1.358       .  A
N390        C526   1.450       .  S
C391        C392   1.378       .  A
C391        C585   1.439       .  S
C392        C393   1.368       .  A
C392        H395   1.083       .  S
C393        C394   1.379       .  A
C393        H396   1.083       .  S
C394        C524   1.437       .  S
C397        C398   1.207       .  T
C398        C399   1.415       .  S
C399        C400   1.207       .  T
C401        C402   1.209       .  T
C402        C403   1.418       .  S
C403        C404   1.209       .  T
C405        C406   1.210       .  T
C406        C407   1.420       .  S
C407        C408   1.210       .  T
C409        C410   1.209       .  T
C410        C411   1.418       .  S
C411        C412   1.210       .  T
C413        H415   1.086       .  S
C413        C414   1.353       .  D
C414        H416   1.086       .  S
C417        H419   1.088       .  S
C417        C418   1.355       .  D
C418        H420   1.087       .  S
C421        H423   1.087       .  S
C421        C422   1.352       .  D
C422        H424   1.086       .  S
C425        H427   1.087       .  S
C425        C426   1.354       .  D
C426        H428   1.087       .  S
C429        C430   1.205       .  T
C430        C431   1.411       .  S
C431        C432   1.205       .  T
C433        C434   1.208       .  T
C434        C435   1.417       .  S
C435        C436   1.209       .  T
C437        C438   1.207       .  T
C438        C439   1.414       .  S
C439        C440   1.207       .  T
C441        C442   1.208       .  T
C442        C443   1.416       .  S
C443        C444   1.208       .  T
C445        H447   1.086       .  S
C445        C446   1.352       .  D
C446        H448   1.086       .  S
C449        H451   1.085       .  S
C449        C450   1.352       .  D
C450        H452   1.085       .  S
C453        H455   1.086       .  S
C453        C454   1.355       .  D
C454        H456   1.087       .  S
C457        H459   1.086       .  S
C457        C458   1.352       .  D
C458        H460   1.086       .  S
C461        H463   1.085       .  S
C461        C462   1.351       .  D
C462        H464   1.086   1_455  S
C465        H467   1.087       .  S
C465        C466   1.353       .  D
C466        H468   1.086       .  S
C469        H471   1.087       .  S
C469        C470   1.352       .  D
C470        H472   1.086       .  S
C473        H475   1.085       .  S
C473        C474   1.350       .  D
C474        H476   1.085   1_655  S
C477        C478   1.209       .  T
C478        C479   1.417       .  S
C479        C480   1.208       .  T
C481        C482   1.211       .  T
C482        C483   1.420       .  S
C483        C484   1.210       .  T
C485        C486   1.207       .  T
C486        C487   1.416       .  S
C487        C488   1.208       .  T
C489        C490   1.210       .  T
C490        C491   1.419       .  S
C491        C492   1.210       .  T
C493        H495   1.085       .  S
C493        C494   1.351       .  D
C494        H496   1.085       .  S
C497        H499   1.087       .  S
C497        C498   1.352       .  D
C498        H500   1.087       .  S
C501        H503   1.087       .  S
C501        C502   1.352       .  D
C502        H504   1.087       .  S
C505        H507   1.086       .  S
C505        C506   1.350       .  D
C506        H508   1.086       .  S
C509        C510   1.206       .  T
C510        C511   1.413       .  S
C511        C512   1.206       .  T
C513        C514   1.205       .  T
C514        C515   1.411       .  S
C515        C516   1.205       .  T
C517        C518   1.207       .  T
C518        C519   1.416       .  S
C519        C520   1.208       .  T
C521        C522   1.206       .  T
C522        C523   1.413       .  S
C523        C524   1.205       .  T
C525        H527   1.085       .  S
C525        C526   1.350   1_556  D
C526        H528   1.086       .  S
C529        H531   1.087       .  S
C529        C530   1.352       .  D
C530        H532   1.086       .  S
C533        H535   1.085   1_556  S
C533        C534   1.352       .  D
C534        H536   1.087       .  S
C537        H539   1.086       .  S
C537        C538   1.349       .  D
C538        H540   1.086   1_554  S
C541        C542   1.206       .  T
C542        C543   1.413       .  S
C543        C544   1.206       .  T
C545        C546   1.207       .  T
C546        C547   1.413       .  S
C547        C548   1.206       .  T
C549        C550   1.206       .  T
C550        C551   1.413       .  S
C551        C552   1.206       .  T
C553        C554   1.204       .  T
C554        C555   1.408       .  S
C555        C556   1.204       .  T
C557        H559   1.087       .  S
C557        C558   1.351       .  D
C558        H560   1.087       .  S
C561        H563   1.082       .  S
C561        C562   1.353       .  D
C562        H564   1.087       .  S
C565        H567   1.079       .  S
C565        C566   1.353       .  D
C566        H568   1.085       .  S
C569        H571   1.087       .  S
C569        C570   1.352       .  D
C570        H572   1.086       .  S
C573        C574   1.208       .  T
C574        C575   1.416       .  S
C575        C576   1.208       .  T
C577        C578   1.206       .  T
C578        C579   1.413       .  S
C579        C580   1.206       .  T
C581        C582   1.209       .  T
C582        C583   1.418       .  S
C583        C584   1.210       .  T
C585        C586   1.206       .  T
C586        C587   1.413       .  S
C587        C588   1.206       .  T
C589        C590   1.211       .  T
C590        C591   1.420       .  S
C591        C592   1.210       .  T
C593        C594   1.209       .  T
C594        C595   1.417       .  S
C595        C596   1.208       .  T
C597        C598   1.208       .  T
C598        C599   1.418       .  S
C599        C600   1.210       .  T
C601        C602   1.212       .  T
C602        C603   1.422       .  S
C603        C604   1.211       .  T
C605        C606   1.207       .  T
C606        C607   1.414       .  S
C607        C608   1.207       .  T
C609        C610   1.208       .  T
C610        C611   1.416       .  S
C611        C612   1.207       .  T
C613        C614   1.206       .  T
C614        C615   1.414       .  S
C615        C616   1.207       .  T
C617        C618   1.206       .  T
C618        C619   1.413       .  S
C619        C620   1.206       .  T
C621        C622   1.210       .  T
C622        C623   1.418       .  S
C623        C624   1.208       .  T
C625        C626   1.209       .  T
C626        C627   1.418       .  S
C627        C628   1.209       .  T
C629        C630   1.208       .  T
C630        C631   1.416       .  S
C631        C632   1.208       .  T
C633        C634   1.208       .  T
C634        C635   1.416       .  S
C635        C636   1.208       .  T
C637        C638   1.207       .  T
C638        C639   1.414       .  S
C639        C640   1.207       .  T
C641        C642   1.205       .  T
C642        C643   1.412       .  S
C643        C644   1.206       .  T
C645        C646   1.208   1_455  T
C646        C647   1.415       .  S
C647        C648   1.207       .  T
C649        C650   1.207       .  T
C650        C651   1.415       .  S
C651        C652   1.207       .  T
C653        C654   1.209       .  T
C654        C655   1.417       .  S
C655        C656   1.209       .  T
C657        C658   1.208       .  T
C658        C659   1.416       .  S
C659        C660   1.208       .  T
C661        C662   1.205       .  T
C662        C663   1.412       .  S
C663        C664   1.206       .  T
C665        C666   1.208       .  T
C666        C667   1.416       .  S
C667        C668   1.208       .  T
C669        C670   1.207       .  T
C670        C671   1.414       .  S
C671        C672   1.207       .  T
C673        C674   1.207       .  T
C674        C675   1.414       .  S
C675        C676   1.206       .  T
C677        C678   1.210       .  T
C678        C679   1.419       .  S
C679        C680   1.209       .  T
C681        C682   1.207       .  T
C682        C683   1.416       .  S
C683        C684   1.208       .  T
