geometry optimzed in LAMMPS
_audit_creation_date              2020-11-30 
_audit_creation_method            'lammps2cif' 
_symmetry_space_group_name_H-M    'P1' 
_symmetry_Int_Tables_number       1 
_symmetry_cell_setting            triclinic 
loop_ 
_symmetry_equiv_pos_as_xyz 
  x,y,z 
_cell_length_a                    43.36312681228825 
_cell_length_b                    43.358921200607384 
_cell_length_c                    43.360098283965215 
_cell_angle_alpha                 90.01457180348386 
_cell_angle_beta                  89.74108559592341 
_cell_angle_gamma                 89.74243014645256 
loop_ 
_atom_site_label 
_atom_site_type_symbol 
_atom_site_fract_x 
_atom_site_fract_y 
_atom_site_fract_z 
_atom_site_charge 
O1          O  0.99724747  0.45654069  0.27556517    -0.72900
O2          O  0.50169350  0.04398757  0.27450428    -0.73120
O3          O  0.45593546  0.50291139  0.27459492    -0.72980
O4          O  0.04327749  0.99794467  0.27546580    -0.72990
O5          O  0.04408594  0.50106571  0.22538644    -0.72950
O6          O  0.45646457  0.99779365  0.22472897    -0.72970
O7          O  0.99849642  0.04334065  0.22444739    -0.72910
O8          O  0.50236759  0.45584409  0.22564544    -0.73100
V9          V  0.49963740  0.50029061  0.27410815     1.35240
V10         V  0.50024469  0.99955990  0.22597621     1.35170
C11         C  0.99981334  0.44136400  0.25078669     0.76340
C12         C  0.50013624  0.05846944  0.24929354     0.76390
C13         C  0.44124076  0.00054635  0.24953777     0.76260
C14         C  0.05843136  0.99933973  0.25054717     0.76220
O15         O  0.47501297  0.20629088  0.25057738    -0.72900
O16         O  0.47498736  0.29386977  0.25001102    -0.73120
O17         O  0.47473125  0.24961384  0.20642100    -0.72980
O18         O  0.47520044  0.25060395  0.29396517    -0.72990
O19         O  0.02533867  0.24880184  0.29346445    -0.72950
O20         O  0.02487332  0.25087163  0.20592784    -0.72970
O21         O  0.02508642  0.29363359  0.25048642    -0.72910
O22         O  0.02506128  0.20607656  0.24873008    -0.73100
V23         V  0.47595433  0.25008279  0.25020975     1.35240
V24         V  0.02411876  0.24985397  0.24968275     1.35170
C25         C  0.00003899  0.19121294  0.24954199     0.76340
C26         C  0.00003686  0.30868462  0.25038406     0.76390
C27         C  0.49972874  0.25031883  0.19137378     0.76260
C28         C  0.50034022  0.24964918  0.30851749     0.76220
O29         O  0.25002955  0.47559199  0.20580480    -0.72900
O30         O  0.25162382  0.47454019  0.29337308    -0.73120
O31         O  0.20670457  0.47443753  0.25052492    -0.72980
O32         O  0.29428483  0.47574714  0.24825414    -0.72990
O33         O  0.29317826  0.02577844  0.25150974    -0.72950
O34         O  0.20567976  0.02449767  0.24937616    -0.72970
O35         O  0.24792084  0.02455384  0.29403536    -0.72910
O36         O  0.25030676  0.02573304  0.20646847    -0.73100
V37         V  0.25056623  0.47603792  0.24955238     1.35240
V38         V  0.24936338  0.02417503  0.25029067     1.35170
C39         C  0.25026971  0.00083700  0.19127320     0.76340
C40         C  0.24960233  0.99936565  0.30858707     0.76390
C41         C  0.19116860  0.99929061  0.25003309     0.76260
C42         C  0.30854081  0.00097088  0.24978265     0.76220
O43         O  0.22455123  0.45662824  0.00040884    -0.72900
O44         O  0.22564492  0.04420786  0.50078938    -0.73120
O45         O  0.22458592  0.50085898  0.45659148    -0.72980
O46         O  0.22556869  0.00062282  0.04417013    -0.72990
O47         O  0.27572284  0.50017022  0.04334709    -0.72950
O48         O  0.27463976  0.99836187  0.45577264    -0.72970
O49         O  0.27570820  0.04336013  0.99841927    -0.72910
O50         O  0.27464107  0.45580484  0.50027773    -0.73100
V51         V  0.22607171  0.50048810  0.50042112     1.35240
V52         V  0.27419902  0.99951010  0.49951857     1.35170
C53         C  0.24944467  0.44127032  0.50042836     0.76340
C54         C  0.25084399  0.05867487  0.49954416     0.76390
C55         C  0.24943465  0.99945380  0.44130308     0.76260
C56         C  0.25079321  0.00057648  0.05863545     0.76220
O57         O  0.99939246  0.22477662  0.45623792    -0.72900
O58         O  0.50070068  0.22519542  0.04378547    -0.73120
O59         O  0.45625070  0.22502020  0.50119295    -0.72980
O60         O  0.04379852  0.22492945  0.99899704    -0.72990
O61         O  0.04366170  0.27500676  0.50027492    -0.72950
O62         O  0.45607846  0.27513928  0.99919959    -0.72970
O63         O  0.99929738  0.27526389  0.04360992    -0.72910
O64         O  0.50042912  0.27485105  0.45604606    -0.73100
V65         V  0.50003685  0.22591699  0.50002937     1.35240
V66         V  0.49985361  0.27412710  0.99980542     1.35170
C67         C  0.49993994  0.24976009  0.44119103     0.76340
C68         C  0.49998574  0.25028055  0.05866022     0.76390
C69         C  0.44125127  0.25012458  0.00031819     0.76260
C70         C  0.05851576  0.24999053  0.99952030     0.76220
O71         O  0.25087144  0.29351514  0.02562267    -0.72900
O72         O  0.24776604  0.20601287  0.02461341    -0.73120
O73         O  0.29332219  0.24775542  0.02559205    -0.72980
O74         O  0.20584079  0.25146499  0.02460444    -0.72990
O75         O  0.20665623  0.24824193  0.47462976    -0.72950
O76         O  0.29413194  0.25260640  0.47568730    -0.72970
O77         O  0.25297284  0.20650505  0.47472622    -0.72910
O78         O  0.24835638  0.29400442  0.47552749    -0.73100
V79         V  0.24952563  0.24972731  0.02417603     1.35240
V80         V  0.25045501  0.25028747  0.47606739     1.35170
C81         C  0.24950026  0.30857421  0.50071606     0.76340
C82         C  0.25051306  0.19138265  0.49953873     0.76390
C83         C  0.30857141  0.25024603  0.00079894     0.76260
C84         C  0.19125948  0.24984849  0.99947859     0.76220
C85         C  0.39088639  0.27334489  0.48500030    -0.14470
C86         C  0.40728389  0.25020750  0.00060184     0.07680
C87         C  0.39099913  0.22717663  0.01648921    -0.14470
C88         C  0.35875330  0.22758566  0.01715266    -0.14470
C89         C  0.34241677  0.25039253  0.00104937     0.07680
C90         C  0.35865576  0.27312643  0.48477760    -0.14470
H91         H  0.40299716  0.29126097  0.47251855     0.11660
H92         H  0.40322985  0.20916899  0.02876861     0.11660
H93         H  0.34654102  0.20977232  0.02969010     0.11660
H94         H  0.34634834  0.29093665  0.47227940     0.11660
C95         C  0.10858899  0.24678507  0.47161035    -0.14470
C96         C  0.09225294  0.24995597  0.99939811     0.07680
C97         C  0.10832520  0.25301265  0.02713481    -0.14470
C98         C  0.14054596  0.25285912  0.02713729    -0.14470
C99         C  0.15714894  0.24986333  0.99933077     0.07680
C100        C  0.14084857  0.24686377  0.47153145    -0.14470
H101        H  0.09633437  0.24445171  0.45001091     0.11660
H102        H  0.09592606  0.25537951  0.04875288     0.11660
H103        H  0.15245243  0.25516574  0.04891951     0.11660
H104        H  0.15298013  0.24454783  0.44977366     0.11660
C105        C  0.22282831  0.39093129  0.00974877    -0.14470
C106        C  0.24928264  0.40720856  0.50055186     0.07680
C107        C  0.27577989  0.39064016  0.49153150    -0.14470
C108        C  0.27572692  0.35841498  0.49141051    -0.14470
C109        C  0.24943434  0.34233202  0.50093415     0.07680
C110        C  0.22303254  0.35866429  0.01023898    -0.14470
H111        H  0.20215835  0.40312815  0.01687691     0.11660
H112        H  0.29643182  0.40260185  0.48422687     0.11660
H113        H  0.29624482  0.34601834  0.48413513     0.11660
H114        H  0.20252956  0.34642566  0.01752763     0.11660
C115        C  0.27306228  0.10890616  0.48229256    -0.14470
C116        C  0.25103635  0.09262368  0.49956450     0.07680
C117        C  0.22885600  0.10902524  0.01674301    -0.14470
C118        C  0.22901668  0.14124569  0.01706923    -0.14470
C119        C  0.25067035  0.15750147  0.49934769     0.07680
C120        C  0.27252368  0.14117566  0.48174832    -0.14470
H121        H  0.29025851  0.09667112  0.46880513     0.11660
H122        H  0.21173822  0.09688742  0.03029932     0.11660
H123        H  0.21195589  0.15349413  0.03072871     0.11660
H124        H  0.28947699  0.15340491  0.46807268     0.11660
C125        C  0.26913821  0.47926242  0.35877876    -0.14470
C126        C  0.24928860  0.99905068  0.34250368     0.07680
C127        C  0.22936543  0.01878857  0.35887509    -0.14470
C128        C  0.22888725  0.01840977  0.39112261    -0.14470
C129        C  0.24914792  0.99911742  0.40738769     0.07680
C130        C  0.26944707  0.47971072  0.39102717    -0.14470
H131        H  0.28476559  0.46398517  0.34653943     0.11660
H132        H  0.21387946  0.03415328  0.34668712     0.11660
H133        H  0.21320652  0.03362887  0.40336877     0.11660
H134        H  0.28518137  0.46460982  0.40322373     0.11660
C135        C  0.23030617  0.01996049  0.10883203    -0.14470
C136        C  0.25103838  0.00099386  0.09254344     0.07680
C137        C  0.27173678  0.48218157  0.10887211    -0.14470
C138        C  0.27118354  0.48182687  0.14112185    -0.14470
C139        C  0.25070556  0.00113917  0.15739678     0.07680
C140        C  0.23054524  0.02047061  0.14107889    -0.14470
H141        H  0.21425873  0.03467960  0.09657837     0.11660
H142        H  0.28778036  0.46730533  0.09667410     0.11660
H143        H  0.28696043  0.46682836  0.15339420     0.11660
H144        H  0.21457041  0.03541021  0.15328963     0.11660
C145        C  0.49370481  0.27682946  0.35844334    -0.14470
C146        C  0.50044561  0.24966434  0.34225622     0.07680
C147        C  0.00700198  0.22249999  0.35845606    -0.14470
C148        C  0.00654437  0.22242331  0.39070199    -0.14470
C149        C  0.50006505  0.24968356  0.40712193     0.07680
C150        C  0.49379656  0.27693311  0.39067436    -0.14470
H151        H  0.48860693  0.29796646  0.34611489     0.11660
H152        H  0.01215259  0.20134628  0.34614007     0.11660
H153        H  0.01153373  0.20113124  0.40277673     0.11660
H154        H  0.48866918  0.29824062  0.40271365     0.11660
C155        C  0.00375081  0.27799154  0.14143779    -0.14470
C156        C  0.49960650  0.25038033  0.15763883     0.07680
C157        C  0.49560821  0.22275893  0.14145708    -0.14470
C158        C  0.49592711  0.22268849  0.10922387    -0.14470
C159        C  0.49988592  0.25034761  0.09275477     0.07680
C160        C  0.00369431  0.27803159  0.10919172    -0.14470
H161        H  0.00688123  0.29948640  0.15376254     0.11660
H162        H  0.49246460  0.20125952  0.15378985     0.11660
H163        H  0.49288849  0.20102253  0.09720130     0.11660
H164        H  0.00684362  0.29967145  0.09713818     0.11660
C165        C  0.14084122  0.47132234  0.24718919    -0.14470
C166        C  0.15706061  0.99909351  0.25031410     0.07680
C167        C  0.14046841  0.02686180  0.25371797    -0.14470
C168        C  0.10824903  0.02685670  0.25402464    -0.14470
C169        C  0.09216540  0.99915108  0.25076788     0.07680
C170        C  0.10857475  0.47139484  0.24730101    -0.14470
H171        H  0.15297894  0.44961069  0.24446895     0.11660
H172        H  0.15238892  0.04861174  0.25624180     0.11660
H173        H  0.09585710  0.04845504  0.25665091     0.11660
H174        H  0.09630710  0.44983547  0.24468447     0.11660
C175        C  0.39113179  0.48301656  0.22800929    -0.14470
C176        C  0.40729368  0.00098455  0.24932629     0.07680
C177        C  0.39088007  0.01922216  0.27061247    -0.14470
C178        C  0.35863536  0.01980172  0.27031007    -0.14470
C179        C  0.34241725  0.00131078  0.24944214     0.07680
C180        C  0.35889695  0.48276669  0.22844008    -0.14470
H181        H  0.40335235  0.46870689  0.21148468     0.11660
H182        H  0.40302743  0.03333687  0.28717997     0.11660
H183        H  0.34635048  0.03413580  0.28676705     0.11660
H184        H  0.34669890  0.46841629  0.21210778     0.11660
C185        C  0.47411625  0.39140212  0.26169467    -0.14470
C186        C  0.99996777  0.40758407  0.25110469     0.07680
C187        C  0.02586414  0.39132253  0.24036917    -0.14470
C188        C  0.02608441  0.35908480  0.24057617    -0.14470
C189        C  0.00003450  0.34271680  0.25070011     0.07680
C190        C  0.47397651  0.35915754  0.26109857    -0.14470
H191        H  0.45391310  0.40372693  0.26990023     0.11660
H192        H  0.04599984  0.40360239  0.23215975     0.11660
H193        H  0.04640727  0.34696655  0.23237699     0.11660
H194        H  0.45365594  0.34707561  0.26910130     0.11660
C195        C  0.47225223  0.10848719  0.25134252    -0.14470
C196        C  0.50010736  0.09220130  0.24896261     0.07680
C197        C  0.02794339  0.10829078  0.24674058    -0.14470
C198        C  0.02794212  0.14053591  0.24691445    -0.14470
C199        C  0.00005436  0.15709859  0.24928949     0.07680
C200        C  0.47218985  0.14072884  0.25146363    -0.14470
H201        H  0.45059664  0.09622365  0.25316713     0.11660
H202        H  0.04962073  0.09589101  0.24497648     0.11660
H203        H  0.04976082  0.15248641  0.24519955     0.11660
H204        H  0.45036309  0.15281796  0.25335679     0.12020
O205        O  0.99724716  0.45653794  0.77556041    -0.72900
O206        O  0.50169382  0.04398486  0.77450897    -0.73120
O207        O  0.45593546  0.50290908  0.77459516    -0.72980
O208        O  0.04327747  0.99794151  0.77546553    -0.72990
O209        O  0.04408588  0.50106891  0.72538656    -0.72950
O210        O  0.45646454  0.99779588  0.72472874    -0.72970
O211        O  0.99849589  0.04334341  0.72445208    -0.72910
O212        O  0.50236802  0.45584674  0.72564068    -0.73100
V213        V  0.49963739  0.50028799  0.77410813     1.35240
V214        V  0.50024465  0.99956251  0.72597615     1.35170
C215        C  0.99981336  0.44136394  0.75078030     0.76340
C216        C  0.50013615  0.05846949  0.74929986     0.76390
C217        C  0.44124074  0.00054631  0.74953780     0.76260
C218        C  0.05843132  0.99933979  0.75054708     0.76220
O219        O  0.47501351  0.20629085  0.75059001    -0.72900
O220        O  0.47498691  0.29386942  0.74999158    -0.73120
O221        O  0.47473754  0.24959559  0.70641749    -0.72980
O222        O  0.47519466  0.25062171  0.79396174    -0.72990
O223        O  0.02533269  0.24881314  0.79346809    -0.72950
O224        O  0.02487938  0.25086117  0.70593106    -0.72970
O225        O  0.02508580  0.29363417  0.75048009    -0.72910
O226        O  0.02506182  0.20607667  0.74874315    -0.73100
V227        V  0.47595442  0.25008259  0.75020644     1.35240
V228        V  0.02411879  0.24985432  0.74968603     1.35170
C229        C  0.00003962  0.19121296  0.74955708     0.76340
C230        C  0.00003603  0.30868473  0.75036894     0.76390
C231        C  0.49973713  0.25029824  0.69137355     0.76260
C232        C  0.50033248  0.24966999  0.80851770     0.76220
O233        O  0.25003001  0.47559181  0.70580506    -0.72900
O234        O  0.25162329  0.47454068  0.79337344    -0.73120
O235        O  0.20670454  0.47443771  0.75052483    -0.72980
O236        O  0.29428480  0.47574722  0.74825479    -0.72990
O237        O  0.29317828  0.02577853  0.75151002    -0.72950
O238        O  0.20567977  0.02449783  0.74937555    -0.72970
O239        O  0.24792028  0.02455432  0.79403519    -0.72910
O240        O  0.25030733  0.02573286  0.70646829    -0.73100
V241        V  0.25056620  0.47603807  0.74955266     1.35240
V242        V  0.24936339  0.02417516  0.75029052     1.35170
C243        C  0.25027060  0.00083669  0.69127322     0.76340
C244        C  0.24960141  0.99936627  0.80858717     0.76390
C245        C  0.19116858  0.99929078  0.75003272     0.76260
C246        C  0.30854081  0.00097094  0.74978312     0.76220
O247        O  0.22455252  0.45662611  0.50040881    -0.72900
O248        O  0.22563388  0.04420898  0.00078991    -0.73120
O249        O  0.22458036  0.50086039  0.95659148    -0.72980
O250        O  0.22557417  0.00062176  0.54416980    -0.72990
O251        O  0.27572831  0.50016377  0.54334710    -0.72950
O252        O  0.27463448  0.99836839  0.95577295    -0.72970
O253        O  0.27571918  0.04335271  0.49841894    -0.72910
O254        O  0.27463985  0.45581096  0.00027794    -0.73100
V255        V  0.22606595  0.50048967  0.00042130     1.35240
V256        V  0.27419338  0.99951673  0.99951874     1.35170
C257        C  0.24944445  0.44127451  0.00042899     0.76340
C258        C  0.25083092  0.05867922  0.99954475     0.76390
C259        C  0.24942941  0.99945733  0.94130324     0.76260
C260        C  0.25079852  0.00057327  0.55863531     0.76220
O261        O  0.99937771  0.22483408  0.95623947    -0.72900
O262        O  0.50071790  0.22513761  0.54378642    -0.73120
O263        O  0.45623468  0.22506156  0.00119197    -0.72980
O264        O  0.04381557  0.22485473  0.49899555    -0.72990
O265        O  0.04362751  0.27508150  0.00027695    -0.72950
O266        O  0.45611340  0.27509788  0.49920073    -0.72970
O267        O  0.99933366  0.27520654  0.54360818    -0.72910
O268        O  0.50039602  0.27490898  0.95604526    -0.73100
V269        V  0.50002017  0.22597521  0.00002969     1.35240
V270        V  0.49988803  0.27406885  0.49980493     1.35170
C271        C  0.49991751  0.24981672  0.94119141     0.76340
C272        C  0.50001238  0.25022407  0.55865982     0.76390
C273        C  0.44127672  0.25008901  0.50032009     0.76260
C274        C  0.05854139  0.24991088  0.49951830     0.76220
O275        O  0.25088218  0.29351135  0.52562317    -0.72900
O276        O  0.24780104  0.20600808  0.52461720    -0.73120
O277        O  0.29334580  0.24776243  0.52559743    -0.72980
O278        O  0.20586412  0.25144612  0.52460382    -0.72990
O279        O  0.20662906  0.24826268  0.97463022    -0.72950
O280        O  0.29410554  0.25260146  0.97568207    -0.72970
O281        O  0.25293487  0.20651080  0.97472218    -0.72910
O282        O  0.24834205  0.29401124  0.97552718    -0.73100
V283        V  0.24954909  0.24972276  0.52417826     1.35240
V284        V  0.25042842  0.25029393  0.97606513     1.35170
C285        C  0.24949167  0.30857937  0.00071634     0.76340
C286        C  0.25047557  0.19138781  0.99953444     0.76390
C287        C  0.30859645  0.25025287  0.50080523     0.76260
C288        C  0.19128482  0.24981942  0.49947755     0.76220
C289        C  0.39085384  0.27336082  0.98499436    -0.14470
C290        C  0.40730927  0.25018532  0.50060641     0.07680
C291        C  0.39101726  0.22716091  0.51649541    -0.14470
C292        C  0.35877170  0.22758142  0.51716065    -0.14470
C293        C  0.34244197  0.25039355  0.50105782     0.07680
C294        C  0.35862359  0.27313091  0.98476991    -0.14470
H295        H  0.40295884  0.29128143  0.97251358     0.11660
H296        H  0.40324223  0.20914885  0.52877405     0.11660
H297        H  0.34655404  0.20977185  0.52969819     0.11660
H298        H  0.34631078  0.29093753  0.97227189     0.11660
C299        C  0.10856202  0.24686617  0.97161113    -0.14470
C300        C  0.09227859  0.24986800  0.49939740     0.07680
C301        C  0.10834948  0.25293037  0.52713417    -0.14470
C302        C  0.14057006  0.25279378  0.52713644    -0.14470
C303        C  0.15717444  0.24981053  0.49932949     0.07680
C304        C  0.14082156  0.24692803  0.97153243    -0.14470
H305        H  0.09630640  0.24453554  0.95001198     0.11660
H306        H  0.09594938  0.25529361  0.54875205     0.11660
H307        H  0.15247523  0.25510699  0.54891864     0.11660
H308        H  0.15295189  0.24460461  0.94977477     0.11660
C309        C  0.22282919  0.39092538  0.50974762    -0.14470
C310        C  0.24928311  0.40721293  0.00055428     0.07680
C311        C  0.27578022  0.39064323  0.99153595    -0.14470
C312        C  0.27572516  0.35841790  0.99141483    -0.14470
C313        C  0.24943056  0.34233681  0.00093634     0.07680
C314        C  0.22303560  0.35865802  0.51023811    -0.14470
H315        H  0.20215913  0.40312127  0.51687719     0.11660
H316        H  0.29643313  0.40260394  0.98423248     0.11660
H317        H  0.29624251  0.34601977  0.98414041     0.11660
H318        H  0.20253404  0.34641805  0.51752848     0.11660
C319        C  0.27303886  0.10891447  0.98229070    -0.14470
C320        C  0.25101756  0.09262826  0.99956481     0.07680
C321        C  0.22887779  0.10902420  0.51674290    -0.14470
C322        C  0.22904594  0.14124441  0.51707150    -0.14470
C323        C  0.25063634  0.15750635  0.99934298     0.07680
C324        C  0.27249272  0.14118388  0.98174408    -0.14470
H325        H  0.29023714  0.09668233  0.96880329     0.11660
H326        H  0.21175673  0.09688930  0.53029765     0.11660
H327        H  0.21198679  0.15349567  0.53073051     0.11660
H328        H  0.28944312  0.15341585  0.96806732     0.11660
C329        C  0.26913564  0.47926398  0.85878000    -0.14470
C330        C  0.24928643  0.99905169  0.84250381     0.07680
C331        C  0.22936232  0.01878956  0.85887416    -0.14470
C332        C  0.22888293  0.01841139  0.89112168    -0.14470
C333        C  0.24914331  0.99911975  0.90738785     0.07680
C334        C  0.26944329  0.47971296  0.89102844    -0.14470
H335        H  0.28476371  0.46398673  0.84654152     0.11660
H336        H  0.21387661  0.03415382  0.84668534     0.11660
H337        H  0.21320162  0.03363055  0.90336699     0.11660
H338        H  0.28517745  0.46461261  0.90322589     0.11660
C339        C  0.23031058  0.01995929  0.60883089    -0.14470
C340        C  0.25104309  0.00099198  0.59254336     0.07680
C341        C  0.27174071  0.48217985  0.60887320    -0.14470
C342        C  0.27118620  0.48182578  0.64112293    -0.14470
C343        C  0.25070773  0.00113849  0.65739677     0.07680
C344        C  0.23054838  0.02046999  0.64107777    -0.14470
H345        H  0.21426371  0.03467835  0.59657638     0.11660
H346        H  0.28778448  0.46730311  0.59667610     0.11660
H347        H  0.28696241  0.46682730  0.65339613     0.11660
H348        H  0.21457325  0.03541002  0.65328765     0.11660
C349        C  0.49367661  0.27686324  0.85843556    -0.14470
C350        C  0.50043394  0.24969684  0.84225658     0.07680
C351        C  0.00700464  0.22254122  0.85846471    -0.14470
C352        C  0.00654362  0.22247354  0.89071024    -0.14470
C353        C  0.50004731  0.24973463  0.90712234     0.07680
C354        C  0.49376581  0.27697639  0.89066699    -0.14470
H355        H  0.48856827  0.29799390  0.84610050     0.11660
H356        H  0.01216841  0.20138681  0.84615541     0.11660
H357        H  0.01154358  0.20118737  0.90279094     0.11660
H358        H  0.48862573  0.29828426  0.90270042     0.11660
C359        C  0.00378472  0.27795182  0.64143025    -0.14470
C360        C  0.49962026  0.25034820  0.65763844     0.07680
C361        C  0.49560843  0.22272435  0.64146372    -0.14470
C362        C  0.49593356  0.22264439  0.60923015    -0.14470
C363        C  0.49991105  0.25029671  0.59275434     0.07680
C364        C  0.00373337  0.27798273  0.60918454    -0.14470
H365        H  0.00692590  0.29944833  0.65374923     0.11660
H366        H  0.49244982  0.20123041  0.65380224     0.11660
H367        H  0.49288393  0.20097723  0.59721258     0.11660
H368        H  0.00689709  0.29961760  0.59712589     0.11660
C369        C  0.14084121  0.47132239  0.74718984    -0.14470
C370        C  0.15706058  0.99909368  0.75031377     0.07680
C371        C  0.14046836  0.02686206  0.75371682    -0.14470
C372        C  0.10824898  0.02685694  0.75402348    -0.14470
C373        C  0.09216537  0.99915118  0.75076777     0.07680
C374        C  0.10857474  0.47139484  0.74730188    -0.14470
H375        H  0.15297893  0.44961067  0.74447026     0.11660
H376        H  0.15238886  0.04861208  0.75623996     0.11660
H377        H  0.09585703  0.04845535  0.75664907     0.11660
H378        H  0.09630710  0.44983537  0.74468612     0.11660
C379        C  0.39113171  0.48301677  0.72800929    -0.14470
C380        C  0.40729369  0.00098454  0.74932639     0.07680
C381        C  0.39088018  0.01922195  0.77061281    -0.14470
C382        C  0.35863547  0.01980156  0.77031053    -0.14470
C383        C  0.34241726  0.00131080  0.74944251     0.07680
C384        C  0.35889687  0.48276689  0.72844022    -0.14470
H385        H  0.40335223  0.46870724  0.71148451     0.11660
H386        H  0.40302763  0.03333649  0.78718038     0.11660
H387        H  0.34635066  0.03413551  0.78676767     0.11660
H388        H  0.34669874  0.46841664  0.71210785     0.11660
C389        C  0.47411467  0.39140147  0.76168086    -0.14470
C390        C  0.99996726  0.40758400  0.75109455     0.07680
C391        C  0.02586408  0.39132307  0.74035907    -0.14470
C392        C  0.02608382  0.35908528  0.74056294    -0.14470
C393        C  0.00003291  0.34271684  0.75068343     0.07680
C394        C  0.47397442  0.35915701  0.76108146    -0.14470
H395        H  0.45391123  0.40372581  0.76988645     0.11660
H396        H  0.04600064  0.40360342  0.73215253     0.11660
H397        H  0.04640727  0.34696734  0.73236479     0.11660
H398        H  0.45365336  0.34707463  0.76908229     0.11660
C399        C  0.47225250  0.10848725  0.75135433    -0.14470
C400        C  0.50010751  0.09220137  0.74897272     0.07680
C401        C  0.02794369  0.10829083  0.74675285    -0.14470
C402        C  0.02794270  0.14053593  0.74693006    -0.14470
C403        C  0.00005505  0.15709861  0.74930639     0.07680
C404        C  0.47219041  0.14072889  0.75147882    -0.14470
H405        H  0.45059678  0.09622371  0.75317727     0.11660
H406        H  0.04962092  0.09589106  0.74498740     0.11660
H407        H  0.04976145  0.15248641  0.74521580     0.11660
H408        H  0.45036368  0.15281802  0.75337230     0.12020
O409        O  0.99713539  0.95653958  0.27556350    -0.72900
O410        O  0.50180635  0.54398830  0.27450292    -0.73120
O411        O  0.45582256  0.00291018  0.27459478    -0.72980
O412        O  0.04339035  0.49794540  0.27546589    -0.72990
O413        O  0.04397322  0.00106690  0.22538652    -0.72950
O414        O  0.45657728  0.49779262  0.22472938    -0.72970
O415        O  0.99860869  0.54333952  0.22444610    -0.72910
O416        O  0.50225534  0.95584548  0.22564372    -0.73100
V417        V  0.49952437  0.00028979  0.27410803     1.35240
V418        V  0.50035755  0.49955878  0.22597637     1.35170
C419        C  0.99970374  0.94136414  0.25078448     0.76340
C420        C  0.50024648  0.55846924  0.24929186     0.76390
C421        C  0.44135344  0.50054664  0.24953808     0.76260
C422        C  0.05854402  0.49933966  0.25054715     0.76220
O423        O  0.47504240  0.70627455  0.25057773    -0.72900
O424        O  0.47495833  0.79385350  0.25001123    -0.73120
O425        O  0.47473192  0.74959612  0.20642130    -0.72980
O426        O  0.47520021  0.75058704  0.29396550    -0.72990
O427        O  0.02533951  0.74881838  0.29346484    -0.72950
O428        O  0.02487291  0.75088959  0.20592827    -0.72970
O429        O  0.02505738  0.79364996  0.25048771    -0.72910
O430        O  0.02509067  0.70609268  0.24872961    -0.73100
V431        V  0.47595455  0.75006676  0.25021008     1.35240
V432        V  0.02411896  0.74986994  0.24968318     1.35170
C433        C  0.00007806  0.69121281  0.24954181     0.76340
C434        C  0.99999812  0.80868469  0.25038453     0.76390
C435        C  0.49972885  0.75031902  0.19137410     0.76260
C436        C  0.50034055  0.74964893  0.30851778     0.76220
O437        O  0.24992074  0.97559034  0.20580421    -0.72900
O438        O  0.25151634  0.97453767  0.29337261    -0.73120
O439        O  0.20659356  0.97443556  0.25052510    -0.72980
O440        O  0.29417394  0.97574498  0.24825312    -0.72990
O441        O  0.29328918  0.52578064  0.25150924    -0.72950
O442        O  0.20579052  0.52449971  0.24937649    -0.72970
O443        O  0.24802933  0.52455644  0.29403524    -0.72910
O444        O  0.25041437  0.52573472  0.20646821    -0.73100
V445        V  0.25045574  0.97603578  0.24955194     1.35240
V446        V  0.24947377  0.52417719  0.25029057     1.35170
C447        C  0.25037146  0.50083846  0.19127333     0.76340
C448        C  0.24970371  0.49936795  0.30858720     0.76390
C449        C  0.19127971  0.49929251  0.25003314     0.76260
C450        C  0.30865194  0.50097303  0.24978292     0.76220
O451        O  0.22453224  0.95662775  0.00040827    -0.72900
O452        O  0.22566436  0.54420690  0.50078913    -0.73120
O453        O  0.22456426  0.00086021  0.45659341    -0.72980
O454        O  0.22559067  0.50062256  0.04417230    -0.72990
O455        O  0.27570091  0.00017135  0.04334918    -0.72950
O456        O  0.27466148  0.49836095  0.45577471    -0.72970
O457        O  0.27572761  0.54336034  0.99841940    -0.72910
O458        O  0.27462206  0.95580608  0.50027783    -0.73100
V459        V  0.22605147  0.00048839  0.50042098     1.35240
V460        V  0.27421925  0.49950954  0.49951857     1.35170
C461        C  0.24942644  0.94127066  0.50042798     0.76340
C462        C  0.25086283  0.55867453  0.49954424     0.76390
C463        C  0.24945808  0.49945103  0.44130316     0.76260
C464        C  0.25081705  0.50057408  0.05863548     0.76220
O465        O  0.99939210  0.72477652  0.45623829    -0.72900
O466        O  0.50070007  0.72519551  0.04378585    -0.73120
O467        O  0.45625042  0.72502060  0.50119320    -0.72980
O468        O  0.04379823  0.72492907  0.99899750    -0.72990
O469        O  0.04366195  0.77500638  0.50027497    -0.72950
O470        O  0.45607869  0.77513966  0.99919993    -0.72970
O471        O  0.99929798  0.77526406  0.04361016    -0.72910
O472        O  0.50042945  0.77485089  0.45604630    -0.73100
V473        V  0.50003653  0.72591699  0.50002974     1.35240
V474        V  0.49985387  0.77412710  0.99980565     1.35170
C475        C  0.49993993  0.74975992  0.44119128     0.76340
C476        C  0.49998574  0.75028073  0.05866049     0.76390
C477        C  0.44125123  0.75012510  0.00031843     0.76260
C478        C  0.05851572  0.74999001  0.99952049     0.76220
O479        O  0.25086952  0.79351488  0.02562305    -0.72900
O480        O  0.24776780  0.70601235  0.02461244    -0.73120
O481        O  0.29332216  0.74775646  0.02559178    -0.72980
O482        O  0.20584072  0.75146316  0.02460420    -0.72990
O483        O  0.20665622  0.74824082  0.47462948    -0.72950
O484        O  0.29413184  0.75260824  0.47568711    -0.72970
O485        O  0.25297467  0.70650548  0.47472527    -0.72910
O486        O  0.24835444  0.79400471  0.47552788    -0.73100
V487        V  0.24952557  0.74972693  0.02417575     1.35240
V488        V  0.25045496  0.75028782  0.47606712     1.35170
C489        C  0.24949712  0.80857425  0.50071665     0.76340
C490        C  0.25051606  0.69138258  0.49953760     0.76390
C491        C  0.30857134  0.75024756  0.00079871     0.76260
C492        C  0.19125944  0.74984694  0.99947833     0.76220
C493        C  0.39088661  0.77334576  0.48500023    -0.14470
C494        C  0.40728385  0.75020828  0.00060191     0.07680
C495        C  0.39099885  0.72717750  0.01648917    -0.14470
C496        C  0.35875301  0.72758678  0.01715247    -0.14470
C497        C  0.34241672  0.75039382  0.00104917     0.07680
C498        C  0.35865597  0.77312754  0.48477738    -0.14470
H499        H  0.40299756  0.79126170  0.47251849     0.11660
H500        H  0.40322938  0.70916975  0.02876862     0.11660
H501        H  0.34654056  0.70977351  0.02968986     0.11660
H502        H  0.34634874  0.79093781  0.47227909     0.11660
C503        C  0.10858884  0.74678440  0.47161030    -0.14470
C504        C  0.09225290  0.74995520  0.99939815     0.07680
C505        C  0.10832528  0.75301166  0.02713480    -0.14470
C506        C  0.14054604  0.75285783  0.02713716    -0.14470
C507        C  0.15714890  0.74986194  0.99933058     0.07680
C508        C  0.14084843  0.74686279  0.47153129    -0.14470
H509        H  0.09633412  0.74445133  0.45001089     0.11660
H510        H  0.09592624  0.75537855  0.04875293     0.11660
H511        H  0.15245259  0.75516430  0.04891936     0.11660
H512        H  0.15297991  0.74454694  0.44977344     0.11660
C513        C  0.22281524  0.89092855  0.00974843    -0.14470
C514        C  0.24926749  0.90720880  0.50055124     0.07680
C515        C  0.27576692  0.89064328  0.49153154    -0.14470
C516        C  0.27571807  0.85841812  0.49141134    -0.14470
C517        C  0.24942750  0.84233214  0.50093514     0.07680
C518        C  0.22302358  0.85866147  0.01023940    -0.14470
H519        H  0.20214389  0.90312312  0.01687624     0.11660
H520        H  0.29641757  0.90260724  0.48422688     0.11660
H521        H  0.29623757  0.84602385  0.48413628     0.11660
H522        H  0.20252209  0.84642048  0.01752807     0.11660
C523        C  0.27307597  0.60890846  0.48229253    -0.14470
C524        C  0.25105249  0.59262345  0.49956504     0.07680
C525        C  0.22886957  0.60902257  0.01674284    -0.14470
C526        C  0.22902561  0.64124303  0.01706815    -0.14470
C527        C  0.25067708  0.65750133  0.49934632     0.07680
C528        C  0.27253272  0.64117798  0.48174739    -0.14470
H529        H  0.29027363  0.59667537  0.46880524     0.11660
H530        H  0.21175316  0.59688282  0.03029922     0.11660
H531        H  0.21196306  0.65348948  0.03072730     0.11660
H532        H  0.28948435  0.65340921  0.46807153     0.11660
C533        C  0.26907302  0.97926634  0.35876751    -0.14470
C534        C  0.24936839  0.49905143  0.34250368     0.07680
C535        C  0.22943341  0.51878742  0.35886382    -0.14470
C536        C  0.22893179  0.51840442  0.39111137    -0.14470
C537        C  0.24918037  0.49910931  0.40738775     0.07680
C538        C  0.26940532  0.97971894  0.39101588    -0.14470
H539        H  0.28469307  0.96398896  0.34651899     0.11660
H540        H  0.21395692  0.53415441  0.34666672     0.11660
H541        H  0.21324488  0.53362418  0.40334879     0.11660
H542        H  0.28514801  0.96461959  0.40320355     0.11660
C543        C  0.23034874  0.51995225  0.10884373    -0.14470
C544        C  0.25107159  0.50098581  0.09254344     0.07680
C545        C  0.27169148  0.98218697  0.10888389    -0.14470
C546        C  0.27111488  0.98182833  0.14113363    -0.14470
C547        C  0.25078599  0.50113956  0.15739676     0.07680
C548        C  0.23061118  0.52046644  0.14109057    -0.14470
H549        H  0.21429290  0.53466991  0.09659931     0.11660
H550        H  0.28774131  0.96731000  0.09669502     0.11660
H551        H  0.28688235  0.96682770  0.15341545     0.11660
H552        H  0.21464368  0.53540607  0.15331087     0.11660
C553        C  0.49371837  0.77683234  0.35844333    -0.14470
C554        C  0.50044592  0.74966401  0.34225637     0.07680
C555        C  0.00698895  0.72249650  0.35845617    -0.14470
C556        C  0.00653203  0.72242017  0.39070210    -0.14470
C557        C  0.50006512  0.74968333  0.40712207     0.07680
C558        C  0.49380922  0.77693573  0.39067435    -0.14470
H559        H  0.48863059  0.79797170  0.34611478     0.11660
H560        H  0.01212957  0.70134043  0.34614014     0.11660
H561        H  0.01151165  0.70112579  0.40277676     0.11660
H562        H  0.48869156  0.79824561  0.40271347     0.11660
C563        C  0.00376672  0.77798942  0.14143787    -0.14470
C564        C  0.49960661  0.75038064  0.15763903     0.07680
C565        C  0.49559239  0.72276164  0.14145725    -0.14470
C566        C  0.49591224  0.72269093  0.10922404    -0.14470
C567        C  0.49988590  0.75034785  0.09275496     0.07680
C568        C  0.00370916  0.77802970  0.10919180    -0.14470
H569        H  0.00690914  0.79948252  0.15376255     0.11660
H570        H  0.49243679  0.70126399  0.15379001     0.11660
H571        H  0.49286199  0.70102671  0.09720140     0.11660
H572        H  0.00687004  0.79966779  0.09713812     0.11660
C573        C  0.14072887  0.97132073  0.24719280    -0.14470
C574        C  0.15717225  0.49909503  0.25031410     0.07680
C575        C  0.14057993  0.52686270  0.25372154    -0.14470
C576        C  0.10836071  0.52685705  0.25402832    -0.14470
C577        C  0.09227773  0.49915154  0.25076781     0.07680
C578        C  0.10846220  0.97139372  0.24730479    -0.14470
H579        H  0.15286619  0.94960853  0.24447537     0.11660
H580        H  0.15250020  0.54861246  0.25624822     0.11660
H581        H  0.09596840  0.54845483  0.25665741     0.11660
H582        H  0.09619423  0.94983418  0.24469111     0.11660
C583        C  0.39101988  0.98301554  0.22800882    -0.14470
C584        C  0.40740605  0.50098535  0.24932664     0.07680
C585        C  0.39099250  0.51922335  0.27061262    -0.14470
C586        C  0.35874761  0.51980348  0.27031014    -0.14470
C587        C  0.34252894  0.50131272  0.24944234     0.07680
C588        C  0.35878521  0.98276513  0.22843965    -0.14470
H589        H  0.40324068  0.96870618  0.21148412     0.11660
H590        H  0.40314006  0.53333798  0.28718006     0.11660
H591        H  0.34646303  0.53413788  0.28676703     0.11660
H592        H  0.34658726  0.96841471  0.21210726     0.11660
C593        C  0.47402927  0.89138865  0.26169132    -0.14470
C594        C  0.99987236  0.90758425  0.25110153     0.07680
C595        C  0.02577757  0.89133636  0.24036703    -0.14470
C596        C  0.02601551  0.85909903  0.24057485    -0.14470
C597        C  0.99997473  0.84271693  0.25069894     0.07680
C598        C  0.47390723  0.85914360  0.26109608    -0.14470
H599        H  0.45381954  0.90370289  0.26989656     0.11660
H600        H  0.04590701  0.90362681  0.23215820     0.11660
H601        H  0.04634534  0.84699192  0.23237660     0.11660
H602        H  0.45359336  0.84705046  0.26909883     0.11660
C603        C  0.47233882  0.60847193  0.25133942    -0.14470
C604        C  0.50020267  0.59220109  0.24896096     0.07680
C605        C  0.02803024  0.60830563  0.24674120    -0.14470
C606        C  0.02801128  0.64055117  0.24691552    -0.14470
C607        C  0.00011417  0.65709843  0.24928903     0.07680
C608        C  0.47225877  0.64071325  0.25146122    -0.14470
H609        H  0.45068976  0.59619671  0.25316249     0.11660
H610        H  0.04971431  0.59591747  0.24497842     0.11660
H611        H  0.04982333  0.65251401  0.24520225     0.11660
H612        H  0.45042518  0.65279007  0.25335324     0.12020
O613        O  0.99713510  0.95653682  0.77555875    -0.72900
O614        O  0.50180667  0.54398559  0.77450761    -0.73120
O615        O  0.45582256  0.00290787  0.77459502    -0.72980
O616        O  0.04339033  0.49794223  0.77546561    -0.72990
O617        O  0.04397316  0.00107011  0.72538664    -0.72950
O618        O  0.45657724  0.49779484  0.72472915    -0.72970
O619        O  0.99860817  0.54334229  0.72445078    -0.72910
O620        O  0.50225576  0.95584813  0.72563896    -0.73100
V621        V  0.49952436  0.00028716  0.77410802     1.35240
V622        V  0.50035751  0.49956138  0.72597630     1.35170
C623        C  0.99970377  0.94136408  0.75077810     0.76340
C624        C  0.50024638  0.55846929  0.74929817     0.76390
C625        C  0.44135342  0.50054659  0.74953810     0.76260
C626        C  0.05854399  0.49933971  0.75054705     0.76220
O627        O  0.47504293  0.70627453  0.75059039    -0.72900
O628        O  0.47495787  0.79385315  0.74999178    -0.73120
O629        O  0.47473820  0.74957786  0.70641781    -0.72980
O630        O  0.47519442  0.75060482  0.79396207    -0.72990
O631        O  0.02533355  0.74882966  0.79346848    -0.72950
O632        O  0.02487898  0.75087915  0.70593149    -0.72970
O633        O  0.02505678  0.79365054  0.75048139    -0.72910
O634        O  0.02509123  0.70609279  0.74874267    -0.73100
V635        V  0.47595462  0.75006656  0.75020677     1.35240
V636        V  0.02411902  0.74987030  0.74968645     1.35170
C637        C  0.00007870  0.69121284  0.74955690     0.76340
C638        C  0.99999731  0.80868480  0.75036942     0.76390
C639        C  0.49973721  0.75029843  0.69137387     0.76260
C640        C  0.50033280  0.74966973  0.80851799     0.76220
O641        O  0.24992120  0.97559015  0.70580447    -0.72900
O642        O  0.25151581  0.97453815  0.79337297    -0.73120
O643        O  0.20659353  0.97443573  0.75052502    -0.72980
O644        O  0.29417392  0.97574504  0.74825376    -0.72990
O645        O  0.29328919  0.52578074  0.75150954    -0.72950
O646        O  0.20579052  0.52449988  0.74937588    -0.72970
O647        O  0.24802877  0.52455693  0.79403507    -0.72910
O648        O  0.25041495  0.52573454  0.70646803    -0.73100
V649        V  0.25045571  0.97603592  0.74955222     1.35240
V650        V  0.24947378  0.52417734  0.75029042     1.35170
C651        C  0.25037236  0.50083816  0.69127336     0.76340
C652        C  0.24970277  0.49936858  0.80858731     0.76390
C653        C  0.19127969  0.49929270  0.75003276     0.76260
C654        C  0.30865194  0.50097311  0.74978340     0.76220
O655        O  0.22453351  0.95662562  0.50040823    -0.72900
O656        O  0.22565328  0.54420802  0.00078965    -0.73120
O657        O  0.22455874  0.00086162  0.95659341    -0.72980
O658        O  0.22559618  0.50062151  0.54417197    -0.72990
O659        O  0.27570635  0.00016490  0.54334919    -0.72950
O660        O  0.27465617  0.49836748  0.95577502    -0.72970
O661        O  0.27573863  0.54335292  0.49841907    -0.72910
O662        O  0.27462087  0.95581220  0.00027803    -0.73100
V663        V  0.22604575  0.00048996  0.00042116     1.35240
V664        V  0.27421358  0.49951617  0.99951874     1.35170
C665        C  0.24942625  0.94127484  0.00042861     0.76340
C666        C  0.25084972  0.55867889  0.99954483     0.76390
C667        C  0.24945280  0.49945456  0.94130332     0.76260
C668        C  0.25082240  0.50057088  0.55863535     0.76220
O669        O  0.99937733  0.72483398  0.95623984    -0.72900
O670        O  0.50071729  0.72513771  0.54378681    -0.73120
O671        O  0.45623439  0.72506195  0.00119222    -0.72980
O672        O  0.04381529  0.72485434  0.49899601    -0.72990
O673        O  0.04362773  0.77508112  0.00027700    -0.72950
O674        O  0.45611364  0.77509829  0.49920106    -0.72970
O675        O  0.99933428  0.77520670  0.54360843    -0.72910
O676        O  0.50039633  0.77490882  0.95604550    -0.73100
V677        V  0.50001984  0.72597521  0.00003006     1.35240
V678        V  0.49988831  0.77406886  0.49980516     1.35170
C679        C  0.49991749  0.74981654  0.94119166     0.76340
C680        C  0.50001238  0.75022424  0.55866009     0.76390
C681        C  0.44127669  0.75008954  0.50032033     0.76260
C682        C  0.05854138  0.74991035  0.49951849     0.76220
O683        O  0.25088027  0.79351110  0.52562354    -0.72900
O684        O  0.24780282  0.70600756  0.52461623    -0.73120
O685        O  0.29334578  0.74776348  0.52559716    -0.72980
O686        O  0.20586407  0.75144429  0.52460358    -0.72990
O687        O  0.20662904  0.74826158  0.97462994    -0.72950
O688        O  0.29410543  0.75260328  0.97568188    -0.72970
O689        O  0.25293666  0.70651123  0.97472123    -0.72910
O690        O  0.24834012  0.79401153  0.97552757    -0.73100
V691        V  0.24954904  0.74972238  0.52417798     1.35240
V692        V  0.25042836  0.75029428  0.97606487     1.35170
C693        C  0.24948853  0.80857941  0.00071693     0.76340
C694        C  0.25047854  0.69138774  0.99953330     0.76390
C695        C  0.30859640  0.75025441  0.50080500     0.76260
C696        C  0.19128479  0.74981786  0.49947729     0.76220
C697        C  0.39085403  0.77336166  0.98499429    -0.14470
C698        C  0.40730924  0.75018611  0.50060648     0.07680
C699        C  0.39101699  0.72716179  0.51649537    -0.14470
C700        C  0.35877143  0.72758256  0.51716047    -0.14470
C701        C  0.34244193  0.75039487  0.50105761     0.07680
C702        C  0.35862378  0.77313200  0.98476969    -0.14470
H703        H  0.40295923  0.79128214  0.97251353     0.11660
H704        H  0.40324177  0.70914963  0.52877406     0.11660
H705        H  0.34655359  0.70977306  0.52969795     0.11660
H706        H  0.34631116  0.79093868  0.97227159     0.11660
C707        C  0.10856186  0.74686554  0.97161108    -0.14470
C708        C  0.09227857  0.74986722  0.49939744     0.07680
C709        C  0.10834958  0.75292939  0.52713416    -0.14470
C710        C  0.14057015  0.75279250  0.52713631    -0.14470
C711        C  0.15717441  0.74980912  0.49932930     0.07680
C712        C  0.14082141  0.74692710  0.97153226    -0.14470
H713        H  0.09630614  0.74453522  0.95001196     0.11660
H714        H  0.09594957  0.75529269  0.54875209     0.11660
H715        H  0.15247541  0.75510559  0.54891848     0.11660
H716        H  0.15295165  0.74460378  0.94977454     0.11660
C717        C  0.22281609  0.89092264  0.50974722    -0.14470
C718        C  0.24926798  0.90721317  0.00055367     0.07680
C719        C  0.27576724  0.89064635  0.99153595    -0.14470
C720        C  0.27571631  0.85842104  0.99141562    -0.14470
C721        C  0.24942372  0.84233693  0.00093734     0.07680
C722        C  0.22302661  0.85865520  0.51023848    -0.14470
H723        H  0.20214462  0.90311623  0.51687644     0.11660
H724        H  0.29641887  0.90260933  0.98423241     0.11660
H725        H  0.29623525  0.84602528  0.98414147     0.11660
H726        H  0.20252653  0.84641287  0.51752882     0.11660
C727        C  0.27305251  0.60891676  0.98229068    -0.14470
C728        C  0.25103365  0.59262802  0.99956535     0.07680
C729        C  0.22889142  0.60902153  0.51674275    -0.14470
C730        C  0.22905492  0.64124176  0.51707044    -0.14470
C731        C  0.25064303  0.65750621  0.99934161     0.07680
C732        C  0.27250173  0.64118619  0.98174317    -0.14470
H733        H  0.29025223  0.59668658  0.96880341     0.11660
H734        H  0.21177172  0.59688470  0.53029756     0.11660
H735        H  0.21199401  0.65349102  0.53072912     0.11660
H736        H  0.28945045  0.65342014  0.96806618     0.11660
C737        C  0.26907046  0.97926789  0.85876874    -0.14470
C738        C  0.24936620  0.49905246  0.84250382     0.07680
C739        C  0.22943028  0.51878841  0.85886289    -0.14470
C740        C  0.22892744  0.51840605  0.89111045    -0.14470
C741        C  0.24917573  0.49911164  0.90738791     0.07680
C742        C  0.26940156  0.97972117  0.89101714    -0.14470
H743        H  0.28469120  0.96399049  0.84652108     0.11660
H744        H  0.21395406  0.53415495  0.84666494     0.11660
H745        H  0.21323995  0.53362586  0.90334701     0.11660
H746        H  0.28514410  0.96462237  0.90320571     0.11660
C747        C  0.23035317  0.51995105  0.60884258    -0.14470
C748        C  0.25107633  0.50098393  0.59254336     0.07680
C749        C  0.27169536  0.98218522  0.60888496    -0.14470
C750        C  0.27111750  0.98182721  0.64113470    -0.14470
C751        C  0.25078818  0.50113890  0.65739676     0.07680
C752        C  0.23061433  0.52046582  0.64108945    -0.14470
H753        H  0.21429789  0.53466864  0.59659730     0.11660
H754        H  0.28774537  0.96730774  0.59669701     0.11660
H755        H  0.28688430  0.96682660  0.65341737     0.11660
H756        H  0.21464652  0.53540586  0.65330889     0.11660
C757        C  0.49369015  0.77686612  0.85843555    -0.14470
C758        C  0.50043424  0.74969650  0.84225673     0.07680
C759        C  0.00699164  0.72253773  0.85846482    -0.14470
C760        C  0.00653129  0.72247039  0.89071035    -0.14470
C761        C  0.50004736  0.74973439  0.90712248     0.07680
C762        C  0.49377845  0.77697900  0.89066699    -0.14470
H763        H  0.48859190  0.79799914  0.84610039     0.11660
H764        H  0.01214544  0.70138095  0.84615548     0.11660
H765        H  0.01152153  0.70118192  0.90279097     0.11660
H766        H  0.48864807  0.79828925  0.90270024     0.11660
C767        C  0.00380076  0.77794968  0.64143033    -0.14470
C768        C  0.49962034  0.75034851  0.65763865     0.07680
C769        C  0.49559253  0.72272708  0.64146389    -0.14470
C770        C  0.49591863  0.72264685  0.60923032    -0.14470
C771        C  0.49991104  0.75029695  0.59275453     0.07680
C772        C  0.00374834  0.77798082  0.60918462    -0.14470
H773        H  0.00695401  0.79944440  0.65374924     0.11660
H774        H  0.49242189  0.70123492  0.65380239     0.11660
H775        H  0.49285733  0.70098143  0.59721267     0.11660
H776        H  0.00692371  0.79961389  0.59712583     0.11660
C777        C  0.14072885  0.97132078  0.74719345    -0.14470
C778        C  0.15717223  0.49909521  0.75031376     0.07680
C779        C  0.14057988  0.52686297  0.75372037    -0.14470
C780        C  0.10836066  0.52685729  0.75402715    -0.14470
C781        C  0.09227770  0.49915164  0.75076770     0.07680
C782        C  0.10846219  0.97139372  0.74730566    -0.14470
H783        H  0.15286619  0.94960850  0.74447667     0.11660
H784        H  0.15250013  0.54861282  0.75624635     0.11660
H785        H  0.09596833  0.54845515  0.75665555     0.11660
H786        H  0.09619423  0.94983407  0.74469275     0.11660
C787        C  0.39101981  0.98301575  0.72800880    -0.14470
C788        C  0.40740605  0.50098535  0.74932674     0.07680
C789        C  0.39099261  0.51922317  0.77061294    -0.14470
C790        C  0.35874772  0.51980335  0.77031059    -0.14470
C791        C  0.34252894  0.50131275  0.74944272     0.07680
C792        C  0.35878514  0.98276534  0.72843978    -0.14470
H793        H  0.40324057  0.96870655  0.71148393     0.11660
H794        H  0.40314026  0.53333763  0.78718044     0.11660
H795        H  0.34646321  0.53413763  0.78676762     0.11660
H796        H  0.34658711  0.96841508  0.71210730     0.11660
C797        C  0.47402768  0.89138800  0.76167751    -0.14470
C798        C  0.99987187  0.90758418  0.75109139     0.07680
C799        C  0.02577754  0.89133691  0.74035696    -0.14470
C800        C  0.02601494  0.85909951  0.74056164    -0.14470
C801        C  0.99997316  0.84271697  0.75068227     0.07680
C802        C  0.47390513  0.85914307  0.76107897    -0.14470
H803        H  0.45381767  0.90370177  0.76988278     0.11660
H804        H  0.04590783  0.90362785  0.73215103     0.11660
H805        H  0.04634538  0.84699273  0.73236444     0.11660
H806        H  0.45359078  0.84704947  0.76907983     0.11660
C807        C  0.47233908  0.60847199  0.75135125    -0.14470
C808        C  0.50020281  0.59220117  0.74897107     0.07680
C809        C  0.02803056  0.60830568  0.74675345    -0.14470
C810        C  0.02801188  0.64055118  0.74693112    -0.14470
C811        C  0.00011488  0.65709845  0.74930592     0.07680
C812        C  0.47225932  0.64071330  0.75147643    -0.14470
H813        H  0.45068990  0.59619676  0.75317267     0.11660
H814        H  0.04971451  0.59591752  0.74498932     0.11660
H815        H  0.04982397  0.65251401  0.74521848     0.11660
H816        H  0.45042575  0.65279014  0.75336878     0.12020
O817        O  0.49724747  0.45654069  0.27556517    -0.72900
O818        O  0.00169350  0.04398757  0.27450428    -0.73120
O819        O  0.95593546  0.50291139  0.27459492    -0.72980
O820        O  0.54327749  0.99794467  0.27546580    -0.72990
O821        O  0.54408594  0.50106571  0.22538644    -0.72950
O822        O  0.95646458  0.99779365  0.22472897    -0.72970
O823        O  0.49849643  0.04334065  0.22444739    -0.72910
O824        O  0.00236759  0.45584409  0.22564544    -0.73100
V825        V  0.99963740  0.50029061  0.27410815     1.35240
V826        V  0.00024469  0.99955990  0.22597621     1.35170
C827        C  0.49981334  0.44136400  0.25078669     0.76340
C828        C  0.00013624  0.05846944  0.24929354     0.76390
C829        C  0.94124076  0.00054635  0.24953777     0.76260
C830        C  0.55843136  0.99933973  0.25054717     0.76220
O831        O  0.97501297  0.20629088  0.25057737    -0.72900
O832        O  0.97498736  0.29386977  0.25001103    -0.73120
O833        O  0.97473125  0.24961384  0.20642100    -0.72980
O834        O  0.97520044  0.25060394  0.29396517    -0.72990
O835        O  0.52533866  0.24880183  0.29346445    -0.72950
O836        O  0.52487332  0.25087163  0.20592784    -0.72970
O837        O  0.52508642  0.29363359  0.25048643    -0.72910
O838        O  0.52506128  0.20607656  0.24873007    -0.73100
V839        V  0.97595433  0.25008279  0.25020975     1.35240
V840        V  0.52411875  0.24985397  0.24968275     1.35170
C841        C  0.50003899  0.19121294  0.24954199     0.76340
C842        C  0.50003686  0.30868462  0.25038406     0.76390
C843        C  0.99972874  0.25031883  0.19137379     0.76260
C844        C  0.00034023  0.24964918  0.30851749     0.76220
O845        O  0.75002955  0.47559198  0.20580480    -0.72900
O846        O  0.75162382  0.47454018  0.29337307    -0.73120
O847        O  0.70670457  0.47443752  0.25052491    -0.72980
O848        O  0.79428483  0.47574713  0.24825414    -0.72990
O849        O  0.79317826  0.02577844  0.25150973    -0.72950
O850        O  0.70567976  0.02449767  0.24937616    -0.72970
O851        O  0.74792084  0.02455384  0.29403536    -0.72910
O852        O  0.75030675  0.02573304  0.20646847    -0.73100
V853        V  0.75056623  0.47603792  0.24955238     1.35240
V854        V  0.74936338  0.02417502  0.25029067     1.35170
C855        C  0.75026971  0.00083700  0.19127320     0.76340
C856        C  0.74960234  0.99936565  0.30858707     0.76390
C857        C  0.69116860  0.99929060  0.25003309     0.76260
C858        C  0.80854081  0.00097088  0.24978265     0.76220
O859        O  0.72455123  0.45662824  0.00040884    -0.72900
O860        O  0.72564494  0.04420786  0.50078938    -0.73120
O861        O  0.72458591  0.50085898  0.45659148    -0.72980
O862        O  0.72556868  0.00062282  0.04417013    -0.72990
O863        O  0.77572284  0.50017022  0.04334709    -0.72950
O864        O  0.77463978  0.99836187  0.45577264    -0.72970
O865        O  0.77570818  0.04336014  0.99841927    -0.72910
O866        O  0.77464106  0.45580484  0.50027773    -0.73100
V867        V  0.72607170  0.50048810  0.50042112     1.35240
V868        V  0.77419904  0.99951010  0.49951857     1.35170
C869        C  0.74944466  0.44127033  0.50042836     0.76340
C870        C  0.75084401  0.05867487  0.49954416     0.76390
C871        C  0.74943467  0.99945381  0.44130308     0.76260
C872        C  0.75079320  0.00057648  0.05863545     0.76220
O873        O  0.49939247  0.22477662  0.45623792    -0.72900
O874        O  0.00070068  0.22519541  0.04378547    -0.73120
O875        O  0.95625070  0.22502020  0.50119295    -0.72980
O876        O  0.54379852  0.22492946  0.99899704    -0.72990
O877        O  0.54366170  0.27500676  0.50027491    -0.72950
O878        O  0.95607847  0.27513927  0.99919959    -0.72970
O879        O  0.49929738  0.27526390  0.04360992    -0.72910
O880        O  0.00042913  0.27485105  0.45604606    -0.73100
V881        V  0.00003685  0.22591699  0.50002937     1.35240
V882        V  0.99985361  0.27412710  0.99980542     1.35170
C883        C  0.99993994  0.24976009  0.44119103     0.76340
C884        C  0.99998574  0.25028055  0.05866022     0.76390
C885        C  0.94125127  0.25012458  0.00031819     0.76260
C886        C  0.55851576  0.24999053  0.99952029     0.76220
O887        O  0.75087144  0.29351514  0.02562267    -0.72900
O888        O  0.74776603  0.20601288  0.02461341    -0.73120
O889        O  0.79332219  0.24775542  0.02559204    -0.72980
O890        O  0.70584079  0.25146500  0.02460444    -0.72990
O891        O  0.70665623  0.24824193  0.47462976    -0.72950
O892        O  0.79413194  0.25260640  0.47568730    -0.72970
O893        O  0.75297284  0.20650505  0.47472622    -0.72910
O894        O  0.74835638  0.29400442  0.47552749    -0.73100
V895        V  0.74952563  0.24972732  0.02417603     1.35240
V896        V  0.75045501  0.25028748  0.47606739     1.35170
C897        C  0.74950025  0.30857421  0.50071605     0.76340
C898        C  0.75051306  0.19138266  0.49953873     0.76390
C899        C  0.80857141  0.25024603  0.00079894     0.76260
C900        C  0.69125948  0.24984850  0.99947859     0.76220
C901        C  0.89088639  0.27334489  0.48500030    -0.14470
C902        C  0.90728389  0.25020750  0.00060184     0.07680
C903        C  0.89099913  0.22717663  0.01648921    -0.14470
C904        C  0.85875330  0.22758566  0.01715266    -0.14470
C905        C  0.84241677  0.25039253  0.00104937     0.07680
C906        C  0.85865576  0.27312643  0.48477760    -0.14470
H907        H  0.90299716  0.29126097  0.47251854     0.11660
H908        H  0.90322985  0.20916899  0.02876861     0.11660
H909        H  0.84654102  0.20977232  0.02969010     0.11660
H910        H  0.84634834  0.29093665  0.47227939     0.11660
C911        C  0.60858899  0.24678508  0.47161034    -0.14470
C912        C  0.59225294  0.24995598  0.99939811     0.07680
C913        C  0.60832520  0.25301266  0.02713481    -0.14470
C914        C  0.64054597  0.25285912  0.02713729    -0.14470
C915        C  0.65714894  0.24986334  0.99933077     0.07680
C916        C  0.64084857  0.24686377  0.47153145    -0.14470
H917        H  0.59633437  0.24445172  0.45001091     0.11660
H918        H  0.59592606  0.25537951  0.04875288     0.11660
H919        H  0.65245243  0.25516574  0.04891951     0.11660
H920        H  0.65298013  0.24454785  0.44977365     0.11660
C921        C  0.72282831  0.39093129  0.00974877    -0.14470
C922        C  0.74928264  0.40720857  0.50055186     0.07680
C923        C  0.77577989  0.39064017  0.49153152    -0.14470
C924        C  0.77572692  0.35841499  0.49141052    -0.14470
C925        C  0.74943434  0.34233202  0.50093415     0.07680
C926        C  0.72303254  0.35866429  0.01023898    -0.14470
H927        H  0.70215836  0.40312815  0.01687691     0.11660
H928        H  0.79643182  0.40260185  0.48422690     0.11660
H929        H  0.79624482  0.34601834  0.48413516     0.11660
H930        H  0.70252957  0.34642566  0.01752763     0.11660
C931        C  0.77306229  0.10890617  0.48229255    -0.14470
C932        C  0.75103637  0.09262368  0.49956450     0.07680
C933        C  0.72885598  0.10902524  0.01674300    -0.14470
C934        C  0.72901666  0.14124569  0.01706922    -0.14470
C935        C  0.75067036  0.15750147  0.49934769     0.07680
C936        C  0.77252368  0.14117567  0.48174831    -0.14470
H937        H  0.79025851  0.09667112  0.46880511     0.11660
H938        H  0.71173821  0.09688743  0.03029932     0.11660
H939        H  0.71195588  0.15349414  0.03072871     0.11660
H940        H  0.78947698  0.15340492  0.46807266     0.11660
C941        C  0.76913819  0.47926241  0.35877876    -0.14470
C942        C  0.74928861  0.99905068  0.34250368     0.07680
C943        C  0.72936543  0.01878856  0.35887509    -0.14470
C944        C  0.72888725  0.01840976  0.39112261    -0.14470
C945        C  0.74914794  0.99911743  0.40738769     0.07680
C946        C  0.76944705  0.47971071  0.39102718    -0.14470
H947        H  0.78476556  0.46398515  0.34653943     0.11660
H948        H  0.71387945  0.03415326  0.34668712     0.11660
H949        H  0.71320651  0.03362885  0.40336877     0.11660
H950        H  0.78518134  0.46460979  0.40322373     0.11660
C951        C  0.73030616  0.01996049  0.10883204    -0.14470
C952        C  0.75103836  0.00099386  0.09254344     0.07680
C953        C  0.77173679  0.48218157  0.10887211    -0.14470
C954        C  0.77118354  0.48182687  0.14112185    -0.14470
C955        C  0.75070555  0.00113917  0.15739678     0.07680
C956        C  0.73054523  0.02047061  0.14107889    -0.14470
H957        H  0.71425871  0.03467960  0.09657838     0.11660
H958        H  0.78778036  0.46730533  0.09667410     0.11660
H959        H  0.78696043  0.46682836  0.15339420     0.11660
H960        H  0.71457039  0.03541021  0.15328964     0.11660
C961        C  0.99370485  0.27682947  0.35844334    -0.14470
C962        C  0.00044562  0.24966434  0.34225622     0.07680
C963        C  0.50700202  0.22250000  0.35845606    -0.14470
C964        C  0.50654441  0.22242332  0.39070199    -0.14470
C965        C  0.00006506  0.24968356  0.40712193     0.07680
C966        C  0.99379660  0.27693312  0.39067436    -0.14470
H967        H  0.98860701  0.29796647  0.34611489     0.11660
H968        H  0.51215266  0.20134630  0.34614007     0.11660
H969        H  0.51153379  0.20113125  0.40277673     0.11660
H970        H  0.98866926  0.29824064  0.40271365     0.11660
C971        C  0.50375079  0.27799154  0.14143779    -0.14470
C972        C  0.99960650  0.25038033  0.15763883     0.07680
C973        C  0.99560819  0.22275894  0.14145708    -0.14470
C974        C  0.99592710  0.22268849  0.10922387    -0.14470
C975        C  0.99988592  0.25034761  0.09275477     0.07680
C976        C  0.50369429  0.27803159  0.10919172    -0.14470
H977        H  0.50688120  0.29948641  0.15376254     0.11660
H978        H  0.99246457  0.20125952  0.15378985     0.11660
H979        H  0.99288846  0.20102253  0.09720130     0.11660
H980        H  0.50684359  0.29967146  0.09713818     0.11660
C981        C  0.64084122  0.47132234  0.24718919    -0.14470
C982        C  0.65706061  0.99909351  0.25031411     0.07680
C983        C  0.64046841  0.02686180  0.25371798    -0.14470
C984        C  0.60824903  0.02685669  0.25402465    -0.14470
C985        C  0.59216540  0.99915108  0.25076788     0.07680
C986        C  0.60857475  0.47139484  0.24730101    -0.14470
H987        H  0.65297894  0.44961069  0.24446895     0.11660
H988        H  0.65238892  0.04861173  0.25624182     0.11660
H989        H  0.59585710  0.04845504  0.25665093     0.11660
H990        H  0.59630710  0.44983547  0.24468447     0.11660
C991        C  0.89113179  0.48301656  0.22800929    -0.14470
C992        C  0.90729368  0.00098454  0.24932628     0.07680
C993        C  0.89088007  0.01922216  0.27061247    -0.14470
C994        C  0.85863536  0.01980172  0.27031007    -0.14470
C995        C  0.84241725  0.00131078  0.24944213     0.07680
C996        C  0.85889695  0.48276669  0.22844008    -0.14470
H997        H  0.90335235  0.46870689  0.21148468     0.11660
H998        H  0.90302743  0.03333687  0.28717996     0.11660
H999        H  0.84635048  0.03413580  0.28676705     0.11660
H1000       H  0.84669890  0.46841629  0.21210779     0.11660
C1001       C  0.97411626  0.39140212  0.26169468    -0.14470
C1002       C  0.49996776  0.40758407  0.25110469     0.07680
C1003       C  0.52586414  0.39132253  0.24036917    -0.14470
C1004       C  0.52608441  0.35908480  0.24057618    -0.14470
C1005       C  0.50003449  0.34271680  0.25070011     0.07680
C1006       C  0.97397652  0.35915754  0.26109858    -0.14470
H1007       H  0.95391311  0.40372693  0.26990024     0.11660
H1008       H  0.54599984  0.40360239  0.23215976     0.11660
H1009       H  0.54640727  0.34696655  0.23237700     0.11660
H1010       H  0.95365595  0.34707561  0.26910131     0.11660
C1011       C  0.97225223  0.10848719  0.25134251    -0.14470
C1012       C  0.00010736  0.09220130  0.24896260     0.07680
C1013       C  0.52794339  0.10829078  0.24674058    -0.14470
C1014       C  0.52794212  0.14053592  0.24691444    -0.14470
C1015       C  0.50005436  0.15709859  0.24928949     0.07680
C1016       C  0.97218985  0.14072884  0.25146362    -0.14470
H1017       H  0.95059664  0.09622365  0.25316712     0.11660
H1018       H  0.54962073  0.09589101  0.24497647     0.11660
H1019       H  0.54976082  0.15248641  0.24519955     0.11660
H1020       H  0.95036310  0.15281796  0.25335679     0.12020
O1021       O  0.49724716  0.45653794  0.77556041    -0.72900
O1022       O  0.00169381  0.04398486  0.77450898    -0.73120
O1023       O  0.95593546  0.50290908  0.77459516    -0.72980
O1024       O  0.54327747  0.99794150  0.77546553    -0.72990
O1025       O  0.54408588  0.50106892  0.72538656    -0.72950
O1026       O  0.95646454  0.99779588  0.72472874    -0.72970
O1027       O  0.49849589  0.04334341  0.72445208    -0.72910
O1028       O  0.00236801  0.45584674  0.72564068    -0.73100
V1029       V  0.99963739  0.50028799  0.77410813     1.35240
V1030       V  0.00024465  0.99956251  0.72597615     1.35170
C1031       C  0.49981336  0.44136394  0.75078030     0.76340
C1032       C  0.00013614  0.05846949  0.74929986     0.76390
C1033       C  0.94124074  0.00054631  0.74953780     0.76260
C1034       C  0.55843132  0.99933978  0.75054708     0.76220
O1035       O  0.97501349  0.20629085  0.75059001    -0.72900
O1036       O  0.97498689  0.29386942  0.74999159    -0.73120
O1037       O  0.97473752  0.24959560  0.70641750    -0.72980
O1038       O  0.97519464  0.25062170  0.79396174    -0.72990
O1039       O  0.52533270  0.24881313  0.79346809    -0.72950
O1040       O  0.52487941  0.25086118  0.70593106    -0.72970
O1041       O  0.52508582  0.29363417  0.75048010    -0.72910
O1042       O  0.52506184  0.20607668  0.74874314    -0.73100
V1043       V  0.97595440  0.25008259  0.75020644     1.35240
V1044       V  0.52411881  0.24985432  0.74968603     1.35170
C1045       C  0.50003964  0.19121296  0.74955708     0.76340
C1046       C  0.50003605  0.30868473  0.75036894     0.76390
C1047       C  0.99973711  0.25029824  0.69137355     0.76260
C1048       C  0.00033246  0.24966999  0.80851770     0.76220
O1049       O  0.75003001  0.47559182  0.70580506    -0.72900
O1050       O  0.75162328  0.47454069  0.79337344    -0.73120
O1051       O  0.70670454  0.47443772  0.75052483    -0.72980
O1052       O  0.79428480  0.47574723  0.74825479    -0.72990
O1053       O  0.79317828  0.02577853  0.75151002    -0.72950
O1054       O  0.70567977  0.02449783  0.74937555    -0.72970
O1055       O  0.74792028  0.02455432  0.79403519    -0.72910
O1056       O  0.75030734  0.02573286  0.70646829    -0.73100
V1057       V  0.75056620  0.47603808  0.74955266     1.35240
V1058       V  0.74936339  0.02417516  0.75029052     1.35170
C1059       C  0.75027061  0.00083669  0.69127322     0.76340
C1060       C  0.74960141  0.99936627  0.80858717     0.76390
C1061       C  0.69116858  0.99929078  0.75003272     0.76260
C1062       C  0.80854081  0.00097094  0.74978313     0.76220
O1063       O  0.72455251  0.45662611  0.50040880    -0.72900
O1064       O  0.72563387  0.04420898  0.00078991    -0.73120
O1065       O  0.72458037  0.50086040  0.95659148    -0.72980
O1066       O  0.72557418  0.00062176  0.54416980    -0.72990
O1067       O  0.77572831  0.50016377  0.54334709    -0.72950
O1068       O  0.77463447  0.99836840  0.95577296    -0.72970
O1069       O  0.77571919  0.04335271  0.49841894    -0.72910
O1070       O  0.77463985  0.45581096  0.00027794    -0.73100
V1071       V  0.72606595  0.50048967  0.00042130     1.35240
V1072       V  0.77419337  0.99951673  0.99951874     1.35170
C1073       C  0.74944446  0.44127451  0.00042899     0.76340
C1074       C  0.75083091  0.05867923  0.99954476     0.76390
C1075       C  0.74942940  0.99945733  0.94130324     0.76260
C1076       C  0.75079854  0.00057327  0.55863531     0.76220
O1077       O  0.49937771  0.22483408  0.95623947    -0.72900
O1078       O  0.00071790  0.22513761  0.54378643    -0.73120
O1079       O  0.95623468  0.22506156  0.00119197    -0.72980
O1080       O  0.54381557  0.22485473  0.49899556    -0.72990
O1081       O  0.54362750  0.27508150  0.00027695    -0.72950
O1082       O  0.95611340  0.27509789  0.49920072    -0.72970
O1083       O  0.49933367  0.27520654  0.54360818    -0.72910
O1084       O  0.00039603  0.27490898  0.95604526    -0.73100
V1085       V  0.00002017  0.22597521  0.00002969     1.35240
V1086       V  0.99988803  0.27406885  0.49980493     1.35170
C1087       C  0.99991751  0.24981672  0.94119141     0.76340
C1088       C  0.00001237  0.25022407  0.55865982     0.76390
C1089       C  0.94127672  0.25008901  0.50032009     0.76260
C1090       C  0.55854139  0.24991088  0.49951829     0.76220
O1091       O  0.75088218  0.29351135  0.52562317    -0.72900
O1092       O  0.74780104  0.20600809  0.52461719    -0.73120
O1093       O  0.79334580  0.24776243  0.52559743    -0.72980
O1094       O  0.70586412  0.25144612  0.52460382    -0.72990
O1095       O  0.70662906  0.24826268  0.97463022    -0.72950
O1096       O  0.79410554  0.25260146  0.97568207    -0.72970
O1097       O  0.75293486  0.20651081  0.97472218    -0.72910
O1098       O  0.74834206  0.29401124  0.97552718    -0.73100
V1099       V  0.74954909  0.24972276  0.52417826     1.35240
V1100       V  0.75042842  0.25029393  0.97606513     1.35170
C1101       C  0.74949167  0.30857937  0.00071633     0.76340
C1102       C  0.75047557  0.19138781  0.99953444     0.76390
C1103       C  0.80859645  0.25025288  0.50080523     0.76260
C1104       C  0.69128482  0.24981942  0.49947755     0.76220
C1105       C  0.89085384  0.27336082  0.98499436    -0.14470
C1106       C  0.90730927  0.25018532  0.50060641     0.07680
C1107       C  0.89101726  0.22716091  0.51649541    -0.14470
C1108       C  0.85877170  0.22758142  0.51716065    -0.14470
C1109       C  0.84244197  0.25039356  0.50105782     0.07680
C1110       C  0.85862359  0.27313091  0.98476991    -0.14470
H1111       H  0.90295884  0.29128143  0.97251358     0.11660
H1112       H  0.90324223  0.20914886  0.52877406     0.11660
H1113       H  0.84655404  0.20977186  0.52969820     0.11660
H1114       H  0.84631078  0.29093753  0.97227189     0.11660
C1115       C  0.60856202  0.24686618  0.97161113    -0.14470
C1116       C  0.59227859  0.24986800  0.49939739     0.07680
C1117       C  0.60834948  0.25293036  0.52713417    -0.14470
C1118       C  0.64057006  0.25279377  0.52713644    -0.14470
C1119       C  0.65717444  0.24981053  0.49932949     0.07680
C1120       C  0.64082156  0.24692805  0.97153242    -0.14470
H1121       H  0.59630640  0.24453555  0.95001198     0.11660
H1122       H  0.59594938  0.25529359  0.54875205     0.11660
H1123       H  0.65247523  0.25510698  0.54891864     0.11660
H1124       H  0.65295189  0.24460462  0.94977476     0.11660
C1125       C  0.72282918  0.39092538  0.50974761    -0.14470
C1126       C  0.74928312  0.40721294  0.00055428     0.07680
C1127       C  0.77578022  0.39064324  0.99153595    -0.14470
C1128       C  0.77572517  0.35841791  0.99141483    -0.14470
C1129       C  0.74943057  0.34233682  0.00093634     0.07680
C1130       C  0.72303559  0.35865802  0.51023810    -0.14470
H1131       H  0.70215912  0.40312126  0.51687717     0.11660
H1132       H  0.79643313  0.40260395  0.98423248     0.11660
H1133       H  0.79624252  0.34601978  0.98414041     0.11660
H1134       H  0.70253403  0.34641805  0.51752845     0.11660
C1135       C  0.77303884  0.10891447  0.98229070    -0.14470
C1136       C  0.75101755  0.09262826  0.99956481     0.07680
C1137       C  0.72887781  0.10902420  0.51674291    -0.14470
C1138       C  0.72904596  0.14124441  0.51707152    -0.14470
C1139       C  0.75063633  0.15750636  0.99934298     0.07680
C1140       C  0.77249271  0.14118388  0.98174408    -0.14470
H1141       H  0.79023713  0.09668233  0.96880328     0.11660
H1142       H  0.71175676  0.09688930  0.53029767     0.11660
H1143       H  0.71198681  0.15349567  0.53073053     0.11660
H1144       H  0.78944311  0.15341585  0.96806732     0.11660
C1145       C  0.76913563  0.47926397  0.85877999    -0.14470
C1146       C  0.74928642  0.99905169  0.84250381     0.07680
C1147       C  0.72936232  0.01878957  0.85887416    -0.14470
C1148       C  0.72888293  0.01841140  0.89112168    -0.14470
C1149       C  0.74914330  0.99911975  0.90738785     0.07680
C1150       C  0.76944328  0.47971295  0.89102844    -0.14470
H1151       H  0.78476368  0.46398671  0.84654152     0.11660
H1152       H  0.71387663  0.03415385  0.84668534     0.11660
H1153       H  0.71320163  0.03363057  0.90336699     0.11660
H1154       H  0.78517743  0.46461259  0.90322589     0.11660
C1155       C  0.73031060  0.01995929  0.60883089    -0.14470
C1156       C  0.75104310  0.00099198  0.59254336     0.07680
C1157       C  0.77174072  0.48217987  0.60887319    -0.14470
C1158       C  0.77118621  0.48182580  0.64112293    -0.14470
C1159       C  0.75070774  0.00113849  0.65739678     0.07680
C1160       C  0.73054839  0.02047000  0.64107777    -0.14470
H1161       H  0.71426373  0.03467836  0.59657637     0.11660
H1162       H  0.78778450  0.46730314  0.59667610     0.11660
H1163       H  0.78696244  0.46682734  0.65339613     0.11660
H1164       H  0.71457326  0.03541002  0.65328765     0.11660
C1165       C  0.99367664  0.27686325  0.85843556    -0.14470
C1166       C  0.00043393  0.24969684  0.84225658     0.07680
C1167       C  0.50700469  0.22254123  0.85846471    -0.14470
C1168       C  0.50654366  0.22247355  0.89071024    -0.14470
C1169       C  0.00004730  0.24973463  0.90712234     0.07680
C1170       C  0.99376584  0.27697640  0.89066700    -0.14470
H1171       H  0.98856832  0.29799391  0.84610050     0.11660
H1172       H  0.51216848  0.20138682  0.84615541     0.11660
H1173       H  0.51154364  0.20118739  0.90279094     0.11660
H1174       H  0.98862578  0.29828428  0.90270042     0.11660
C1175       C  0.50378479  0.27795181  0.64143025    -0.14470
C1176       C  0.99962024  0.25034820  0.65763844     0.07680
C1177       C  0.99560846  0.22272434  0.64146372    -0.14470
C1178       C  0.99593359  0.22264439  0.60923015    -0.14470
C1179       C  0.99991104  0.25029671  0.59275434     0.07680
C1180       C  0.50373343  0.27798273  0.60918453    -0.14470
H1181       H  0.50692602  0.29944831  0.65374922     0.11660
H1182       H  0.99244989  0.20123040  0.65380224     0.11660
H1183       H  0.99288401  0.20097721  0.59721258     0.11660
H1184       H  0.50689719  0.29961759  0.59712589     0.11660
C1185       C  0.64084121  0.47132240  0.74718985    -0.14470
C1186       C  0.65706058  0.99909368  0.75031376     0.07680
C1187       C  0.64046836  0.02686206  0.75371681    -0.14470
C1188       C  0.60824898  0.02685694  0.75402347    -0.14470
C1189       C  0.59216537  0.99915118  0.75076777     0.07680
C1190       C  0.60857474  0.47139485  0.74730188    -0.14470
H1191       H  0.65297894  0.44961068  0.74447027     0.11660
H1192       H  0.65238885  0.04861209  0.75623995     0.11660
H1193       H  0.59585703  0.04845535  0.75664906     0.11660
H1194       H  0.59630710  0.44983537  0.74468613     0.11660
C1195       C  0.89113171  0.48301678  0.72800928    -0.14470
C1196       C  0.90729369  0.00098453  0.74932639     0.07680
C1197       C  0.89088018  0.01922194  0.77061282    -0.14470
C1198       C  0.85863547  0.01980155  0.77031054    -0.14470
C1199       C  0.84241726  0.00131080  0.74944251     0.07680
C1200       C  0.85889687  0.48276690  0.72844022    -0.14470
H1201       H  0.90335223  0.46870725  0.71148450     0.11660
H1202       H  0.90302763  0.03333648  0.78718039     0.11660
H1203       H  0.84635066  0.03413551  0.78676768     0.11660
H1204       H  0.84669874  0.46841664  0.71210785     0.11660
C1205       C  0.97411466  0.39140147  0.76168085    -0.14470
C1206       C  0.49996727  0.40758400  0.75109455     0.07680
C1207       C  0.52586409  0.39132308  0.74035908    -0.14470
C1208       C  0.52608384  0.35908528  0.74056294    -0.14470
C1209       C  0.50003292  0.34271685  0.75068343     0.07680
C1210       C  0.97397440  0.35915701  0.76108146    -0.14470
H1211       H  0.95391122  0.40372581  0.76988645     0.11660
H1212       H  0.54600065  0.40360343  0.73215253     0.11660
H1213       H  0.54640729  0.34696735  0.73236479     0.11660
H1214       H  0.95365335  0.34707463  0.76908229     0.11660
C1215       C  0.97225249  0.10848724  0.75135435    -0.14470
C1216       C  0.00010750  0.09220137  0.74897272     0.07680
C1217       C  0.52794371  0.10829083  0.74675286    -0.14470
C1218       C  0.52794272  0.14053593  0.74693007    -0.14470
C1219       C  0.50005507  0.15709861  0.74930639     0.07680
C1220       C  0.97219040  0.14072888  0.75147883    -0.14470
H1221       H  0.95059678  0.09622370  0.75317730     0.11660
H1222       H  0.54962093  0.09589105  0.74498742     0.11660
H1223       H  0.54976147  0.15248640  0.74521582     0.11660
H1224       H  0.95036367  0.15281801  0.75337233     0.12020
O1225       O  0.49713539  0.95653958  0.27556350    -0.72900
O1226       O  0.00180635  0.54398830  0.27450292    -0.73120
O1227       O  0.95582256  0.00291018  0.27459478    -0.72980
O1228       O  0.54339035  0.49794540  0.27546588    -0.72990
O1229       O  0.54397322  0.00106690  0.22538652    -0.72950
O1230       O  0.95657728  0.49779261  0.22472938    -0.72970
O1231       O  0.49860870  0.54333952  0.22444610    -0.72910
O1232       O  0.00225534  0.95584547  0.22564372    -0.73100
V1233       V  0.99952437  0.00028979  0.27410802     1.35240
V1234       V  0.00035755  0.49955878  0.22597637     1.35170
C1235       C  0.49970374  0.94136414  0.25078448     0.76340
C1236       C  0.00024648  0.55846924  0.24929186     0.76390
C1237       C  0.94135344  0.50054663  0.24953808     0.76260
C1238       C  0.55854402  0.49933966  0.25054714     0.76220
O1239       O  0.97504240  0.70627455  0.25057774    -0.72900
O1240       O  0.97495833  0.79385350  0.25001123    -0.73120
O1241       O  0.97473192  0.74959612  0.20642131    -0.72980
O1242       O  0.97520021  0.75058705  0.29396550    -0.72990
O1243       O  0.52533951  0.74881839  0.29346484    -0.72950
O1244       O  0.52487291  0.75088958  0.20592827    -0.72970
O1245       O  0.52505738  0.79364996  0.25048770    -0.72910
O1246       O  0.52509067  0.70609268  0.24872962    -0.73100
V1247       V  0.97595455  0.75006676  0.25021008     1.35240
V1248       V  0.52411896  0.74986994  0.24968318     1.35170
C1249       C  0.50007806  0.69121281  0.24954181     0.76340
C1250       C  0.49999812  0.80868469  0.25038453     0.76390
C1251       C  0.99972885  0.75031902  0.19137410     0.76260
C1252       C  0.00034055  0.74964893  0.30851778     0.76220
O1253       O  0.74992074  0.97559034  0.20580421    -0.72900
O1254       O  0.75151634  0.97453767  0.29337262    -0.73120
O1255       O  0.70659356  0.97443556  0.25052510    -0.72980
O1256       O  0.79417394  0.97574498  0.24825311    -0.72990
O1257       O  0.79328918  0.52578063  0.25150925    -0.72950
O1258       O  0.70579052  0.52449970  0.24937648    -0.72970
O1259       O  0.74802933  0.52455643  0.29403524    -0.72910
O1260       O  0.75041437  0.52573471  0.20646820    -0.73100
V1261       V  0.75045574  0.97603578  0.24955194     1.35240
V1262       V  0.74947377  0.52417718  0.25029057     1.35170
C1263       C  0.75037147  0.50083846  0.19127333     0.76340
C1264       C  0.74970370  0.49936794  0.30858720     0.76390
C1265       C  0.69127971  0.49929251  0.25003313     0.76260
C1266       C  0.80865194  0.50097303  0.24978292     0.76220
O1267       O  0.72453223  0.95662775  0.00040827    -0.72900
O1268       O  0.72566435  0.54420691  0.50078912    -0.73120
O1269       O  0.72456428  0.00086021  0.45659341    -0.72980
O1270       O  0.72559068  0.50062256  0.04417230    -0.72990
O1271       O  0.77570090  0.00017136  0.04334918    -0.72950
O1272       O  0.77466147  0.49836095  0.45577470    -0.72970
O1273       O  0.77572762  0.54336034  0.99841940    -0.72910
O1274       O  0.77462208  0.95580608  0.50027783    -0.73100
V1275       V  0.72605149  0.00048840  0.50042098     1.35240
V1276       V  0.77421924  0.49950954  0.49951856     1.35170
C1277       C  0.74942646  0.94127066  0.50042798     0.76340
C1278       C  0.75086282  0.55867453  0.49954424     0.76390
C1279       C  0.74945807  0.49945102  0.44130316     0.76260
C1280       C  0.75081705  0.50057408  0.05863548     0.76220
O1281       O  0.49939209  0.72477652  0.45623829    -0.72900
O1282       O  0.00070006  0.72519552  0.04378585    -0.73120
O1283       O  0.95625042  0.72502059  0.50119319    -0.72980
O1284       O  0.54379823  0.72492906  0.99899750    -0.72990
O1285       O  0.54366195  0.77500638  0.50027498    -0.72950
O1286       O  0.95607869  0.77513966  0.99919993    -0.72970
O1287       O  0.49929798  0.77526406  0.04361016    -0.72910
O1288       O  0.00042944  0.77485089  0.45604630    -0.73100
V1289       V  0.00003654  0.72591699  0.50002974     1.35240
V1290       V  0.99985387  0.77412710  0.99980565     1.35170
C1291       C  0.99993993  0.74975992  0.44119128     0.76340
C1292       C  0.99998574  0.75028073  0.05866049     0.76390
C1293       C  0.94125123  0.75012510  0.00031843     0.76260
C1294       C  0.55851572  0.74999001  0.99952049     0.76220
O1295       O  0.75086952  0.79351488  0.02562305    -0.72900
O1296       O  0.74776780  0.70601235  0.02461244    -0.73120
O1297       O  0.79332216  0.74775646  0.02559178    -0.72980
O1298       O  0.70584072  0.75146316  0.02460420    -0.72990
O1299       O  0.70665622  0.74824082  0.47462948    -0.72950
O1300       O  0.79413184  0.75260824  0.47568711    -0.72970
O1301       O  0.75297466  0.70650548  0.47472527    -0.72910
O1302       O  0.74835445  0.79400471  0.47552788    -0.73100
V1303       V  0.74952557  0.74972694  0.02417575     1.35240
V1304       V  0.75045496  0.75028782  0.47606712     1.35170
C1305       C  0.74949713  0.80857425  0.50071665     0.76340
C1306       C  0.75051605  0.69138258  0.49953759     0.76390
C1307       C  0.80857134  0.75024756  0.00079871     0.76260
C1308       C  0.69125944  0.74984694  0.99947833     0.76220
C1309       C  0.89088661  0.77334575  0.48500023    -0.14470
C1310       C  0.90728385  0.75020828  0.00060191     0.07680
C1311       C  0.89099885  0.72717750  0.01648917    -0.14470
C1312       C  0.85875301  0.72758678  0.01715247    -0.14470
C1313       C  0.84241671  0.75039382  0.00104917     0.07680
C1314       C  0.85865597  0.77312754  0.48477738    -0.14470
H1315       H  0.90299756  0.79126169  0.47251849     0.11660
H1316       H  0.90322938  0.70916974  0.02876861     0.11660
H1317       H  0.84654056  0.70977351  0.02968985     0.11660
H1318       H  0.84634874  0.79093781  0.47227908     0.11660
C1319       C  0.60858884  0.74678440  0.47161030    -0.14470
C1320       C  0.59225290  0.74995519  0.99939815     0.07680
C1321       C  0.60832528  0.75301166  0.02713480    -0.14470
C1322       C  0.64054604  0.75285783  0.02713716    -0.14470
C1323       C  0.65714890  0.74986193  0.99933058     0.07680
C1324       C  0.64084843  0.74686279  0.47153129    -0.14470
H1325       H  0.59633412  0.74445133  0.45001089     0.11660
H1326       H  0.59592624  0.75537856  0.04875293     0.11660
H1327       H  0.65245258  0.75516431  0.04891936     0.11660
H1328       H  0.65297991  0.74454695  0.44977344     0.11660
C1329       C  0.72281523  0.89092855  0.00974842    -0.14470
C1330       C  0.74926750  0.90720880  0.50055124     0.07680
C1331       C  0.77576693  0.89064328  0.49153154    -0.14470
C1332       C  0.77571809  0.85841812  0.49141134    -0.14470
C1333       C  0.74942751  0.84233214  0.50093514     0.07680
C1334       C  0.72302357  0.85866147  0.01023940    -0.14470
H1335       H  0.70214388  0.90312312  0.01687624     0.11660
H1336       H  0.79641759  0.90260724  0.48422688     0.11660
H1337       H  0.79623758  0.84602385  0.48413628     0.11660
H1338       H  0.70252208  0.84642048  0.01752807     0.11660
C1339       C  0.77307596  0.60890846  0.48229252    -0.14470
C1340       C  0.75105248  0.59262345  0.49956504     0.07680
C1341       C  0.72886958  0.60902257  0.01674286    -0.14470
C1342       C  0.72902562  0.64124303  0.01706816    -0.14470
C1343       C  0.75067708  0.65750133  0.49934632     0.07680
C1344       C  0.77253271  0.64117798  0.48174738    -0.14470
H1345       H  0.79027362  0.59667537  0.46880523     0.11660
H1346       H  0.71175317  0.59688283  0.03029924     0.11660
H1347       H  0.71196308  0.65348948  0.03072732     0.11660
H1348       H  0.78948434  0.65340921  0.46807152     0.11660
C1349       C  0.76907304  0.97926635  0.35876751    -0.14470
C1350       C  0.74936838  0.49905143  0.34250368     0.07680
C1351       C  0.72943341  0.51878743  0.35886382    -0.14470
C1352       C  0.72893179  0.51840443  0.39111137    -0.14470
C1353       C  0.74918036  0.49910931  0.40738775     0.07680
C1354       C  0.76940534  0.97971895  0.39101588    -0.14470
H1355       H  0.78469310  0.96398898  0.34651899     0.11660
H1356       H  0.71395694  0.53415443  0.34666671     0.11660
H1357       H  0.71324489  0.53362420  0.40334879     0.11660
H1358       H  0.78514804  0.96461961  0.40320355     0.11660
C1359       C  0.73034875  0.51995225  0.10884373    -0.14470
C1360       C  0.75107160  0.50098581  0.09254344     0.07680
C1361       C  0.77169147  0.98218697  0.10888389    -0.14470
C1362       C  0.77111487  0.98182833  0.14113362    -0.14470
C1363       C  0.75078600  0.50113956  0.15739676     0.07680
C1364       C  0.73061119  0.52046644  0.14109057    -0.14470
H1365       H  0.71429291  0.53466991  0.09659931     0.11660
H1366       H  0.78774130  0.96731000  0.09669501     0.11660
H1367       H  0.78688235  0.96682770  0.15341545     0.11660
H1368       H  0.71464369  0.53540607  0.15331087     0.11660
C1369       C  0.99371830  0.77683232  0.35844333    -0.14470
C1370       C  0.00044592  0.74966401  0.34225637     0.07680
C1371       C  0.50698887  0.72249648  0.35845617    -0.14470
C1372       C  0.50653195  0.72242016  0.39070210    -0.14470
C1373       C  0.00006512  0.74968333  0.40712207     0.07680
C1374       C  0.99380915  0.77693571  0.39067435    -0.14470
H1375       H  0.98863046  0.79797166  0.34611478     0.11660
H1376       H  0.51212942  0.70134040  0.34614014     0.11660
H1377       H  0.51151151  0.70112577  0.40277675     0.11660
H1378       H  0.98869143  0.79824558  0.40271347     0.11660
C1379       C  0.50376675  0.77798942  0.14143787    -0.14470
C1380       C  0.99960660  0.75038064  0.15763903     0.07680
C1381       C  0.99559240  0.72276164  0.14145725    -0.14470
C1382       C  0.99591226  0.72269093  0.10922404    -0.14470
C1383       C  0.99988590  0.75034785  0.09275496     0.07680
C1384       C  0.50370918  0.77802969  0.10919180    -0.14470
H1385       H  0.50690917  0.79948251  0.15376255     0.11660
H1386       H  0.99243682  0.70126399  0.15379001     0.11660
H1387       H  0.99286201  0.70102670  0.09720140     0.11660
H1388       H  0.50687007  0.79966778  0.09713812     0.11660
C1389       C  0.64072887  0.97132073  0.24719280    -0.14470
C1390       C  0.65717225  0.49909503  0.25031410     0.07680
C1391       C  0.64057993  0.52686270  0.25372153    -0.14470
C1392       C  0.60836071  0.52685704  0.25402831    -0.14470
C1393       C  0.59227773  0.49915153  0.25076781     0.07680
C1394       C  0.60846220  0.97139372  0.24730479    -0.14470
H1395       H  0.65286619  0.94960853  0.24447536     0.11660
H1396       H  0.65250020  0.54861246  0.25624821     0.11660
H1397       H  0.59596840  0.54845483  0.25665740     0.11660
H1398       H  0.59619423  0.94983418  0.24469111     0.11660
C1399       C  0.89101988  0.98301553  0.22800882    -0.14470
C1400       C  0.90740605  0.50098535  0.24932664     0.07680
C1401       C  0.89099250  0.51922334  0.27061262    -0.14470
C1402       C  0.85874761  0.51980348  0.27031014    -0.14470
C1403       C  0.84252894  0.50131271  0.24944234     0.07680
C1404       C  0.85878521  0.98276512  0.22843965    -0.14470
H1405       H  0.90324068  0.96870617  0.21148412     0.11660
H1406       H  0.90314005  0.53333797  0.28718006     0.11660
H1407       H  0.84646303  0.53413787  0.28676703     0.11660
H1408       H  0.84658726  0.96841471  0.21210726     0.11660
C1409       C  0.97402927  0.89138865  0.26169133    -0.14470
C1410       C  0.49987236  0.90758425  0.25110153     0.07680
C1411       C  0.52577757  0.89133636  0.24036704    -0.14470
C1412       C  0.52601551  0.85909903  0.24057486    -0.14470
C1413       C  0.49997472  0.84271693  0.25069894     0.07680
C1414       C  0.97390724  0.85914360  0.26109609    -0.14470
H1415       H  0.95381955  0.90370289  0.26989657     0.11660
H1416       H  0.54590701  0.90362681  0.23215822     0.11660
H1417       H  0.54634534  0.84699192  0.23237662     0.11660
H1418       H  0.95359337  0.84705046  0.26909885     0.11660
C1419       C  0.97233881  0.60847193  0.25133943    -0.14470
C1420       C  0.00020267  0.59220109  0.24896096     0.07680
C1421       C  0.52803025  0.60830563  0.24674120    -0.14470
C1422       C  0.52801129  0.64055117  0.24691553    -0.14470
C1423       C  0.50011417  0.65709843  0.24928903     0.07680
C1424       C  0.97225877  0.64071325  0.25146123    -0.14470
H1425       H  0.95068976  0.59619671  0.25316250     0.11660
H1426       H  0.54971431  0.59591747  0.24497843     0.11660
H1427       H  0.54982333  0.65251401  0.24520226     0.11660
H1428       H  0.95042518  0.65279007  0.25335325     0.12020
O1429       O  0.49713509  0.95653683  0.77555874    -0.72900
O1430       O  0.00180667  0.54398559  0.77450761    -0.73120
O1431       O  0.95582256  0.00290787  0.77459502    -0.72980
O1432       O  0.54339033  0.49794224  0.77546561    -0.72990
O1433       O  0.54397316  0.00107011  0.72538664    -0.72950
O1434       O  0.95657724  0.49779485  0.72472914    -0.72970
O1435       O  0.49860816  0.54334229  0.72445078    -0.72910
O1436       O  0.00225576  0.95584813  0.72563896    -0.73100
V1437       V  0.99952436  0.00028716  0.77410802     1.35240
V1438       V  0.00035751  0.49956138  0.72597630     1.35170
C1439       C  0.49970376  0.94136408  0.75077810     0.76340
C1440       C  0.00024639  0.55846928  0.74929817     0.76390
C1441       C  0.94135342  0.50054660  0.74953810     0.76260
C1442       C  0.55854399  0.49933972  0.75054705     0.76220
O1443       O  0.97504295  0.70627453  0.75059039    -0.72900
O1444       O  0.97495789  0.79385315  0.74999178    -0.73120
O1445       O  0.97473821  0.74957786  0.70641781    -0.72980
O1446       O  0.97519444  0.75060483  0.79396207    -0.72990
O1447       O  0.52533354  0.74882967  0.79346848    -0.72950
O1448       O  0.52487897  0.75087914  0.70593149    -0.72970
O1449       O  0.52505676  0.79365054  0.75048138    -0.72910
O1450       O  0.52509122  0.70609280  0.74874267    -0.73100
V1451       V  0.97595463  0.75006656  0.75020677     1.35240
V1452       V  0.52411901  0.74987030  0.74968645     1.35170
C1453       C  0.50007869  0.69121284  0.74955690     0.76340
C1454       C  0.49999730  0.80868480  0.75036942     0.76390
C1455       C  0.99973723  0.75029843  0.69137387     0.76260
C1456       C  0.00033281  0.74966973  0.80851799     0.76220
O1457       O  0.74992120  0.97559015  0.70580447    -0.72900
O1458       O  0.75151581  0.97453815  0.79337298    -0.73120
O1459       O  0.70659353  0.97443573  0.75052502    -0.72980
O1460       O  0.79417392  0.97574504  0.74825377    -0.72990
O1461       O  0.79328919  0.52578075  0.75150953    -0.72950
O1462       O  0.70579052  0.52449989  0.74937588    -0.72970
O1463       O  0.74802877  0.52455694  0.79403507    -0.72910
O1464       O  0.75041495  0.52573455  0.70646803    -0.73100
V1465       V  0.75045571  0.97603592  0.74955222     1.35240
V1466       V  0.74947378  0.52417734  0.75029042     1.35170
C1467       C  0.75037236  0.50083817  0.69127336     0.76340
C1468       C  0.74970277  0.49936859  0.80858731     0.76390
C1469       C  0.69127969  0.49929270  0.75003276     0.76260
C1470       C  0.80865194  0.50097311  0.74978340     0.76220
O1471       O  0.72453352  0.95662562  0.50040823    -0.72900
O1472       O  0.72565328  0.54420802  0.00078966    -0.73120
O1473       O  0.72455873  0.00086163  0.95659341    -0.72980
O1474       O  0.72559617  0.50062151  0.54417197    -0.72990
O1475       O  0.77570637  0.00016490  0.54334919    -0.72950
O1476       O  0.77465617  0.49836748  0.95577502    -0.72970
O1477       O  0.77573862  0.54335292  0.49841906    -0.72910
O1478       O  0.77462086  0.95581220  0.00027804    -0.73100
V1479       V  0.72604574  0.00048997  0.00042116     1.35240
V1480       V  0.77421359  0.49951617  0.99951874     1.35170
C1481       C  0.74942624  0.94127485  0.00042861     0.76340
C1482       C  0.75084972  0.55867889  0.99954483     0.76390
C1483       C  0.74945280  0.49945456  0.94130332     0.76260
C1484       C  0.75082239  0.50057088  0.55863535     0.76220
O1485       O  0.49937732  0.72483398  0.95623984    -0.72900
O1486       O  0.00071729  0.72513771  0.54378681    -0.73120
O1487       O  0.95623439  0.72506195  0.00119221    -0.72980
O1488       O  0.54381529  0.72485434  0.49899601    -0.72990
O1489       O  0.54362773  0.77508111  0.00027701    -0.72950
O1490       O  0.95611364  0.77509828  0.49920107    -0.72970
O1491       O  0.49933428  0.77520670  0.54360843    -0.72910
O1492       O  0.00039632  0.77490882  0.95604550    -0.73100
V1493       V  0.00001984  0.72597521  0.00003006     1.35240
V1494       V  0.99988831  0.77406886  0.49980516     1.35170
C1495       C  0.99991749  0.74981654  0.94119166     0.76340
C1496       C  0.00001239  0.75022424  0.55866009     0.76390
C1497       C  0.94127669  0.75008954  0.50032033     0.76260
C1498       C  0.55854137  0.74991035  0.49951849     0.76220
O1499       O  0.75088028  0.79351110  0.52562354    -0.72900
O1500       O  0.74780282  0.70600756  0.52461622    -0.73120
O1501       O  0.79334578  0.74776348  0.52559715    -0.72980
O1502       O  0.70586407  0.75144429  0.52460358    -0.72990
O1503       O  0.70662904  0.74826158  0.97462994    -0.72950
O1504       O  0.79410543  0.75260329  0.97568188    -0.72970
O1505       O  0.75293666  0.70651123  0.97472123    -0.72910
O1506       O  0.74834012  0.79401153  0.97552757    -0.73100
V1507       V  0.74954904  0.74972238  0.52417797     1.35240
V1508       V  0.75042835  0.75029428  0.97606487     1.35170
C1509       C  0.74948853  0.80857941  0.00071694     0.76340
C1510       C  0.75047854  0.69138774  0.99953330     0.76390
C1511       C  0.80859640  0.75025441  0.50080499     0.76260
C1512       C  0.69128479  0.74981786  0.49947729     0.76220
C1513       C  0.89085403  0.77336166  0.98499429    -0.14470
C1514       C  0.90730924  0.75018611  0.50060648     0.07680
C1515       C  0.89101699  0.72716179  0.51649537    -0.14470
C1516       C  0.85877143  0.72758255  0.51716046    -0.14470
C1517       C  0.84244193  0.75039486  0.50105761     0.07680
C1518       C  0.85862378  0.77313200  0.98476969    -0.14470
H1519       H  0.90295923  0.79128214  0.97251353     0.11660
H1520       H  0.90324177  0.70914962  0.52877406     0.11660
H1521       H  0.84655359  0.70977306  0.52969795     0.11660
H1522       H  0.84631116  0.79093868  0.97227159     0.11660
C1523       C  0.60856186  0.74686553  0.97161108    -0.14470
C1524       C  0.59227857  0.74986722  0.49939744     0.07680
C1525       C  0.60834958  0.75292939  0.52713416    -0.14470
C1526       C  0.64057015  0.75279250  0.52713631    -0.14470
C1527       C  0.65717441  0.74980912  0.49932930     0.07680
C1528       C  0.64082141  0.74692709  0.97153226    -0.14470
H1529       H  0.59630614  0.74453520  0.95001196     0.11660
H1530       H  0.59594957  0.75529269  0.54875209     0.11660
H1531       H  0.65247541  0.75510559  0.54891848     0.11660
H1532       H  0.65295165  0.74460377  0.94977454     0.11660
C1533       C  0.72281611  0.89092264  0.50974722    -0.14470
C1534       C  0.74926797  0.90721317  0.00055367     0.07680
C1535       C  0.77576724  0.89064635  0.99153596    -0.14470
C1536       C  0.77571630  0.85842104  0.99141562    -0.14470
C1537       C  0.74942372  0.84233693  0.00093735     0.07680
C1538       C  0.72302663  0.85865521  0.51023848    -0.14470
H1539       H  0.70214464  0.90311624  0.51687644     0.11660
H1540       H  0.79641886  0.90260934  0.98423242     0.11660
H1541       H  0.79623524  0.84602528  0.98414148     0.11660
H1542       H  0.70252655  0.84641287  0.51752882     0.11660
C1543       C  0.77305250  0.60891676  0.98229067    -0.14470
C1544       C  0.75103365  0.59262802  0.99956535     0.07680
C1545       C  0.72889141  0.60902153  0.51674275    -0.14470
C1546       C  0.72905491  0.64124176  0.51707043    -0.14470
C1547       C  0.75064303  0.65750622  0.99934161     0.07680
C1548       C  0.77250172  0.64118619  0.98174315    -0.14470
H1549       H  0.79025221  0.59668658  0.96880339     0.11660
H1550       H  0.71177172  0.59688470  0.53029756     0.11660
H1551       H  0.71199400  0.65349102  0.53072912     0.11660
H1552       H  0.78945044  0.65342015  0.96806616     0.11660
C1553       C  0.76907044  0.97926787  0.85876874    -0.14470
C1554       C  0.74936620  0.49905246  0.84250382     0.07680
C1555       C  0.72943029  0.51878843  0.85886289    -0.14470
C1556       C  0.72892746  0.51840607  0.89111045    -0.14470
C1557       C  0.74917573  0.49911164  0.90738791     0.07680
C1558       C  0.76940154  0.97972116  0.89101714    -0.14470
H1559       H  0.78469117  0.96399047  0.84652108     0.11660
H1560       H  0.71395408  0.53415499  0.84666494     0.11660
H1561       H  0.71323997  0.53362589  0.90334701     0.11660
H1562       H  0.78514407  0.96462235  0.90320571     0.11660
C1563       C  0.73035315  0.51995104  0.60884258    -0.14470
C1564       C  0.75107633  0.50098394  0.59254336     0.07680
C1565       C  0.77169537  0.98218522  0.60888497    -0.14470
C1566       C  0.77111751  0.98182721  0.64113470    -0.14470
C1567       C  0.75078818  0.50113891  0.65739675     0.07680
C1568       C  0.73061432  0.52046581  0.64108945    -0.14470
H1569       H  0.71429786  0.53466862  0.59659730     0.11660
H1570       H  0.78774538  0.96730774  0.59669701     0.11660
H1571       H  0.78688430  0.96682660  0.65341738     0.11660
H1572       H  0.71464649  0.53540584  0.65330889     0.11660
C1573       C  0.99369008  0.77686610  0.85843555    -0.14470
C1574       C  0.00043425  0.74969650  0.84225673     0.07680
C1575       C  0.50699155  0.72253771  0.85846481    -0.14470
C1576       C  0.50653121  0.72247037  0.89071034    -0.14470
C1577       C  0.00004736  0.74973439  0.90712248     0.07680
C1578       C  0.99377838  0.77697899  0.89066699    -0.14470
H1579       H  0.98859176  0.79799910  0.84610039     0.11660
H1580       H  0.51214528  0.70138091  0.84615548     0.11660
H1581       H  0.51152138  0.70118188  0.90279096     0.11660
H1582       H  0.98864793  0.79828922  0.90270024     0.11660
C1583       C  0.50380078  0.77794967  0.64143033    -0.14470
C1584       C  0.99962036  0.75034851  0.65763865     0.07680
C1585       C  0.99559259  0.72272707  0.64146389    -0.14470
C1586       C  0.99591868  0.72264684  0.60923032    -0.14470
C1587       C  0.99991105  0.75029695  0.59275453     0.07680
C1588       C  0.50374837  0.77798081  0.60918462    -0.14470
H1589       H  0.50695407  0.79944439  0.65374924     0.11660
H1590       H  0.99242198  0.70123491  0.65380239     0.11660
H1591       H  0.99285741  0.70098142  0.59721267     0.11660
H1592       H  0.50692377  0.79961388  0.59712583     0.11660
C1593       C  0.64072885  0.97132078  0.74719345    -0.14470
C1594       C  0.65717223  0.49909522  0.75031376     0.07680
C1595       C  0.64057988  0.52686297  0.75372037    -0.14470
C1596       C  0.60836066  0.52685730  0.75402714    -0.14470
C1597       C  0.59227770  0.49915165  0.75076769     0.07680
C1598       C  0.60846219  0.97139372  0.74730567    -0.14470
H1599       H  0.65286619  0.94960850  0.74447669     0.11660
H1600       H  0.65250013  0.54861283  0.75624634     0.11660
H1601       H  0.59596833  0.54845515  0.75665554     0.11660
H1602       H  0.59619423  0.94983407  0.74469277     0.11660
C1603       C  0.89101981  0.98301575  0.72800880    -0.14470
C1604       C  0.90740605  0.50098535  0.74932673     0.07680
C1605       C  0.89099261  0.51922317  0.77061294    -0.14470
C1606       C  0.85874772  0.51980335  0.77031058    -0.14470
C1607       C  0.84252894  0.50131276  0.74944272     0.07680
C1608       C  0.85878514  0.98276534  0.72843978    -0.14470
H1609       H  0.90324056  0.96870656  0.71148393     0.11660
H1610       H  0.90314026  0.53333764  0.78718044     0.11660
H1611       H  0.84646321  0.53413764  0.78676762     0.11660
H1612       H  0.84658711  0.96841508  0.71210730     0.11660
C1613       C  0.97402768  0.89138800  0.76167749    -0.14470
C1614       C  0.49987186  0.90758418  0.75109139     0.07680
C1615       C  0.52577752  0.89133691  0.74035694    -0.14470
C1616       C  0.52601492  0.85909951  0.74056162    -0.14470
C1617       C  0.49997314  0.84271697  0.75068226     0.07680
C1618       C  0.97390514  0.85914307  0.76107896    -0.14470
H1619       H  0.95381767  0.90370177  0.76988276     0.11660
H1620       H  0.54590781  0.90362785  0.73215099     0.11660
H1621       H  0.54634535  0.84699272  0.73236440     0.11660
H1622       H  0.95359078  0.84704947  0.76907980     0.11660
C1623       C  0.97233909  0.60847199  0.75135126    -0.14470
C1624       C  0.00020281  0.59220116  0.74897107     0.07680
C1625       C  0.52803055  0.60830568  0.74675346    -0.14470
C1626       C  0.52801187  0.64055119  0.74693113    -0.14470
C1627       C  0.50011487  0.65709845  0.74930592     0.07680
C1628       C  0.97225933  0.64071330  0.75147644    -0.14470
H1629       H  0.95068991  0.59619676  0.75317269     0.11660
H1630       H  0.54971451  0.59591752  0.74498934     0.11660
H1631       H  0.54982396  0.65251401  0.74521850     0.11660
H1632       H  0.95042576  0.65279014  0.75336880     0.12020
loop_ 
_geom_bond_atom_site_label_1 
_geom_bond_atom_site_label_2 
_geom_bond_distance 
_geom_bond_site_symmetry_2 
_ccdc_geom_bond_type 
O1           C11   1.264       .  A
O1          V825   1.901       .  S
O2           C12   1.263       .  A
O2          V417   1.898       .  S
O3          C421   1.264       .  A
O3            V9   1.898       .  S
O4           C14   1.264       .  A
O4         V1233   1.901   1_465  S
O5          C422   1.263       .  A
O5         V1234   1.898       .  S
O6           C13   1.265   1_565  A
O6           V10   1.901       .  S
O7          C828   1.264   1_655  A
O7          V826   1.901   1_645  S
O8          C827   1.263       .  A
O8          V418   1.897       .  S
V9          O817   1.901       .  S
V9          O410   1.898       .  S
V9         O1228   1.901       .  S
V9          V418   2.087       .  T
V10        O1229   1.898   1_565  S
V10         O823   1.901   1_565  S
V10         O416   1.897       .  S
V10         V417   2.087   1_565  T
C11         O824   1.263   1_655  A
C11         C186   1.465       .  S
C12         O823   1.264       .  A
C12         C196   1.463       .  S
C13         O411   1.264       .  A
C13         C176   1.472       .  S
C14         O413   1.263   1_565  A
C14         C169   1.463       .  S
O15         C841   1.265       .  A
O15          V23   1.899       .  S
O16         C842   1.265       .  A
O16          V23   1.899       .  S
O17          C27   1.263       .  A
O17          V23   1.900       .  S
O18          C28   1.263       .  A
O18          V23   1.898       .  S
O19         C844   1.263       .  A
O19          V24   1.900       .  S
O20         C843   1.263   1_455  A
O20          V24   1.898       .  S
O21          C26   1.265       .  A
O21          V24   1.899       .  S
O22          C25   1.265       .  A
O22          V24   1.899       .  S
V23         V840   2.089       .  T
V24         V839   2.089   1_455  T
C25         O831   1.265   1_455  A
C25         C199   1.479       .  S
C26         O832   1.265   1_455  A
C26         C189   1.476       .  S
C27         O836   1.263       .  A
C27         C156   1.463       .  S
C28         O835   1.263       .  A
C28         C146   1.463       .  S
O29         C447   1.263       .  A
O29          V37   1.897       .  S
O30         C448   1.265       .  A
O30          V37   1.902       .  S
O31         C449   1.266       .  A
O31          V37   1.904       .  S
O32         C450   1.263       .  A
O32          V37   1.896       .  S
O33          C42   1.265       .  A
O33          V38   1.903       .  S
O34          C41   1.264   1_545  A
O34          V38   1.895       .  S
O35          C40   1.263   1_545  A
O35          V38   1.898       .  S
O36          C39   1.265       .  A
O36          V38   1.902       .  S
V37         V446   2.088       .  T
V38         V445   2.088   1_545  T
C39         O437   1.263   1_545  A
C39         C139   1.469       .  S
C40         O438   1.265       .  A
C40         C126   1.471       .  S
C41         O439   1.266       .  A
C41         C166   1.479       .  S
C42         O440   1.263   1_545  A
C42         C179   1.469       .  S
O43         C257   1.266       .  A
O43         V255   1.903       .  S
O44          C54   1.263       .  A
O44         V459   1.896       .  S
O45         C463   1.265       .  A
O45          V51   1.902       .  S
O46          C56   1.263       .  A
O46         V663   1.897       .  S
O47         C464   1.265       .  A
O47         V664   1.902   1_554  S
O48          C55   1.263       .  A
O48          V52   1.897       .  S
O49         C258   1.265       .  A
O49         V256   1.903   1_545  S
O50          C53   1.264       .  A
O50         V460   1.895       .  S
V51         O247   1.903       .  S
V51         O452   1.896       .  S
V51         O658   1.897       .  S
V51         V460   2.088       .  T
V52         O659   1.902   1_565  S
V52         O253   1.903   1_565  S
V52         O458   1.895       .  S
V52         V459   2.088   1_565  T
C53         O247   1.266       .  A
C53         C106   1.477       .  S
C54         O253   1.265       .  A
C54         C116   1.472       .  S
C55         O453   1.265   1_565  A
C55         C129   1.471       .  S
C56         O455   1.265       .  A
C56         C136   1.470       .  S
O57         C883   1.265       .  A
O57         V881   1.900   1_655  S
O58          C68   1.265       .  A
O58         V269   1.898       .  S
O59         C273   1.264       .  A
O59          V65   1.900       .  S
O60          C70   1.263       .  A
O60        V1085   1.899   1_556  S
O61         C274   1.263       .  A
O61        V1086   1.899   1_455  S
O62          C69   1.264   1_556  A
O62          V66   1.899       .  S
O63         C884   1.265       .  A
O63         V882   1.900   1_554  S
O64          C67   1.264       .  A
O64         V270   1.898       .  S
V65         O873   1.900       .  S
V65         O262   1.898       .  S
V65        O1080   1.899       .  S
V65         V270   2.088       .  T
V66        O1081   1.899   1_556  S
V66         O879   1.900   1_556  S
V66         O268   1.898       .  S
V66         V269   2.088   1_556  T
C67         O873   1.265       .  A
C67         C149   1.477       .  S
C68         O879   1.265       .  A
C68         C159   1.478       .  S
C69         O263   1.264       .  A
C69          C86   1.473       .  S
C70         O265   1.263   1_556  A
C70          C96   1.463       .  S
O71         C285   1.264       .  A
O71          V79   1.901       .  S
O72         C286   1.263   1_554  A
O72          V79   1.897       .  S
O73          C83   1.264       .  A
O73          V79   1.902       .  S
O74          C84   1.264   1_554  A
O74          V79   1.895       .  S
O75         C288   1.266       .  A
O75          V80   1.903       .  S
O76         C287   1.263       .  A
O76          V80   1.897       .  S
O77          C82   1.264       .  A
O77          V80   1.902       .  S
O78          C81   1.263       .  A
O78          V80   1.897       .  S
V79         V284   2.086   1_554  T
V80         V283   2.086       .  T
C81         O275   1.264       .  A
C81         C109   1.464       .  S
C82         O276   1.263       .  A
C82         C119   1.469       .  S
C83         O280   1.263   1_554  A
C83          C89   1.468       .  S
C84         O279   1.266       .  A
C84          C99   1.479       .  S
C85          C90   1.398       .  A
C85         C290   1.404       .  A
C85          H91   1.083       .  S
C86          C87   1.405       .  A
C86         C289   1.404   1_554  A
C87          C88   1.398       .  A
C87          H92   1.083       .  S
C88          C89   1.402       .  A
C88          H93   1.083       .  S
C89         C294   1.402   1_554  A
C90         C293   1.402       .  A
C90          H94   1.083       .  S
C95         C100   1.399       .  A
C95         C300   1.400       .  A
C95         H101   1.084       .  S
C96          C97   1.399   1_556  A
C96         C299   1.400       .  A
C97          C98   1.397       .  A
C97         H102   1.083       .  S
C98          C99   1.407   1_554  A
C98         H103   1.083       .  S
C99         C304   1.407       .  A
C100        C303   1.407       .  A
C100        H104   1.083       .  S
C105        C110   1.399       .  A
C105        C310   1.406       .  A
C105        H111   1.082       .  S
C106        C107   1.406       .  A
C106        C309   1.406       .  A
C107        C108   1.397       .  A
C107        H112   1.083       .  S
C108        C109   1.400       .  A
C108        H113   1.083       .  S
C109        C314   1.401       .  A
C110        C313   1.401       .  A
C110        H114   1.083       .  S
C115        C116   1.404       .  A
C115        C120   1.399       .  A
C115        H121   1.083       .  S
C116        C321   1.404       .  A
C117        C118   1.397       .  A
C117        C320   1.404   1_554  A
C117        H122   1.083       .  S
C118        C323   1.402   1_554  A
C118        H123   1.083       .  S
C119        C120   1.403       .  A
C119        C322   1.402       .  A
C120        H124   1.083       .  S
C125        C130   1.399       .  A
C125        C534   1.403       .  A
C125        H131   1.083       .  S
C126        C127   1.404   1_565  A
C126        C533   1.403       .  A
C127        C128   1.398       .  A
C127        H132   1.083       .  S
C128        C129   1.403   1_545  A
C128        H133   1.083       .  S
C129        C538   1.404       .  A
C130        C537   1.404       .  A
C130        H134   1.083       .  S
C135        C136   1.404       .  A
C135        C140   1.398       .  A
C135        H141   1.083       .  S
C136        C545   1.403   1_545  A
C137        C138   1.399       .  A
C137        C544   1.403       .  A
C137        H142   1.083       .  S
C138        C547   1.403       .  A
C138        H143   1.083       .  S
C139        C140   1.402       .  A
C139        C546   1.403   1_545  A
C140        H144   1.083       .  S
C145        C146   1.400       .  A
C145        C150   1.398       .  A
C145        H151   1.084       .  S
C146        C963   1.400       .  A
C147        C148   1.398       .  A
C147        C962   1.400       .  A
C147        H152   1.083       .  S
C148        C965   1.406       .  A
C148        H153   1.083       .  S
C149        C150   1.406       .  A
C149        C964   1.406       .  A
C150        H154   1.083       .  S
C155        C160   1.398       .  A
C155        C972   1.400   1_455  A
C155        H161   1.084       .  S
C156        C157   1.400       .  A
C156        C971   1.400       .  A
C157        C158   1.398       .  A
C157        H162   1.084       .  S
C158        C159   1.407       .  A
C158        H163   1.083       .  S
C159        C976   1.407       .  A
C160        C975   1.407   1_455  A
C160        H164   1.083       .  S
C165        C170   1.399       .  A
C165        C574   1.407       .  A
C165        H171   1.083       .  S
C166        C167   1.407   1_565  A
C166        C573   1.407       .  A
C167        C168   1.397       .  A
C167        H172   1.083       .  S
C168        C169   1.399   1_545  A
C168        H173   1.083       .  S
C169        C578   1.401       .  A
C170        C577   1.401       .  A
C170        H174   1.084       .  S
C175        C180   1.398       .  A
C175        C584   1.404       .  A
C175        H181   1.083       .  S
C176        C177   1.404       .  A
C176        C583   1.404   1_545  A
C177        C178   1.398       .  A
C177        H182   1.084       .  S
C178        C179   1.402       .  A
C178        H183   1.083       .  S
C179        C588   1.403   1_545  A
C180        C587   1.403       .  A
C180        H184   1.084       .  S
C185        C190   1.398       .  A
C185       C1002   1.401       .  A
C185        H191   1.083       .  S
C186        C187   1.401   1_655  A
C186       C1001   1.401       .  A
C187        C188   1.398       .  A
C187        H192   1.084       .  S
C188        C189   1.405       .  A
C188        H193   1.083       .  S
C189       C1006   1.406   1_455  A
C190       C1005   1.406       .  A
C190        H194   1.083       .  S
C195        C196   1.400       .  A
C195        C200   1.398       .  A
C195        H201   1.084       .  S
C196       C1013   1.400       .  A
C197        C198   1.398       .  A
C197       C1012   1.400       .  A
C197        H202   1.083       .  S
C198        C199   1.407       .  A
C198        H203   1.083       .  S
C199       C1016   1.407   1_455  A
C200       C1015   1.407       .  A
C200        H204   1.083       .  S
O205        C215   1.264       .  A
O205       V1029   1.901       .  S
O206        C216   1.263       .  A
O206        V621   1.898       .  S
O207        C625   1.264       .  A
O207        V213   1.898       .  S
O208        C218   1.264       .  A
O208       V1437   1.901   1_465  S
O209        C626   1.263       .  A
O209       V1438   1.898       .  S
O210        C217   1.265   1_565  A
O210        V214   1.901       .  S
O211       C1032   1.264   1_655  A
O211       V1030   1.901   1_645  S
O212       C1031   1.263       .  A
O212        V622   1.897       .  S
V213       O1021   1.901       .  S
V213        O614   1.898       .  S
V213       O1432   1.901       .  S
V213        V622   2.087       .  T
V214       O1433   1.898   1_565  S
V214       O1027   1.901   1_565  S
V214        O620   1.897       .  S
V214        V621   2.087   1_565  T
C215       O1028   1.263   1_655  A
C215        C390   1.465       .  S
C216       O1027   1.264       .  A
C216        C400   1.463       .  S
C217        O615   1.264       .  A
C217        C380   1.472       .  S
C218        O617   1.263   1_565  A
C218        C373   1.463       .  S
O219       C1045   1.265       .  A
O219        V227   1.899       .  S
O220       C1046   1.265       .  A
O220        V227   1.899       .  S
O221        C231   1.263       .  A
O221        V227   1.900       .  S
O222        C232   1.263       .  A
O222        V227   1.898       .  S
O223       C1048   1.263       .  A
O223        V228   1.900       .  S
O224       C1047   1.263   1_455  A
O224        V228   1.898       .  S
O225        C230   1.265       .  A
O225        V228   1.899       .  S
O226        C229   1.265       .  A
O226        V228   1.899       .  S
V227       V1044   2.089       .  T
V228       V1043   2.089   1_455  T
C229       O1035   1.265   1_455  A
C229        C403   1.479       .  S
C230       O1036   1.265   1_455  A
C230        C393   1.476       .  S
C231       O1040   1.263       .  A
C231        C360   1.463       .  S
C232       O1039   1.263       .  A
C232        C350   1.463       .  S
O233        C651   1.263       .  A
O233        V241   1.897       .  S
O234        C652   1.265       .  A
O234        V241   1.902       .  S
O235        C653   1.266       .  A
O235        V241   1.904       .  S
O236        C654   1.263       .  A
O236        V241   1.896       .  S
O237        C246   1.265       .  A
O237        V242   1.903       .  S
O238        C245   1.264   1_545  A
O238        V242   1.895       .  S
O239        C244   1.263   1_545  A
O239        V242   1.898       .  S
O240        C243   1.265       .  A
O240        V242   1.902       .  S
V241        V650   2.088       .  T
V242        V649   2.088   1_545  T
C243        O641   1.263   1_545  A
C243        C343   1.469       .  S
C244        O642   1.265       .  A
C244        C330   1.471       .  S
C245        O643   1.266       .  A
C245        C370   1.479       .  S
C246        O644   1.263   1_545  A
C246        C383   1.469       .  S
O248        C258   1.263   1_554  A
O248        V663   1.896       .  S
O249        C667   1.265       .  A
O249        V255   1.902   1_556  S
O250        C260   1.263       .  A
O250        V459   1.897       .  S
O251        C668   1.265       .  A
O251        V460   1.902       .  S
O252        C259   1.263       .  A
O252        V256   1.897       .  S
O254        C257   1.264       .  A
O254        V664   1.895   1_554  S
V255        O656   1.896       .  S
V255        O454   1.897       .  S
V255        V664   2.088   1_554  T
V256        O455   1.902   1_566  S
V256        O662   1.895   1_556  S
V256        V663   2.088   1_566  T
C257        C310   1.477       .  S
C258        C320   1.472       .  S
C259        O657   1.265   1_565  A
C259        C333   1.471       .  S
C260        O659   1.265       .  A
C260        C340   1.470       .  S
O261       C1087   1.265       .  A
O261       V1085   1.900   1_656  S
O262        C272   1.265       .  A
O263        V269   1.900       .  S
O264        C274   1.263       .  A
O264        V881   1.899       .  S
O265        V882   1.899   1_454  S
O266        C273   1.264       .  A
O266        V270   1.899       .  S
O267       C1088   1.265   1_655  A
O267       V1086   1.900       .  S
O268        C271   1.264       .  A
V269       O1077   1.900   1_554  S
V269        O876   1.899   1_554  S
V270        O877   1.899       .  S
V270       O1083   1.900       .  S
C271       O1077   1.265       .  A
C271        C353   1.477       .  S
C272       O1083   1.265       .  A
C272        C363   1.478       .  S
C273        C290   1.473       .  S
C274        C300   1.463       .  S
O275        V283   1.901       .  S
O276        V283   1.897       .  S
O277        C287   1.264       .  A
O277        V283   1.902       .  S
O278        C288   1.264       .  A
O278        V283   1.895       .  S
O279        V284   1.903       .  S
O280        V284   1.897       .  S
O281        C286   1.264       .  A
O281        V284   1.902       .  S
O282        C285   1.263   1_556  A
O282        V284   1.897       .  S
C285        C313   1.464       .  S
C286        C323   1.469       .  S
C287        C293   1.468       .  S
C288        C303   1.479       .  S
C289        C294   1.398       .  A
C289        H295   1.083       .  S
C290        C291   1.405       .  A
C291        C292   1.398       .  A
C291        H296   1.083       .  S
C292        C293   1.402       .  A
C292        H297   1.083       .  S
C294        H298   1.083       .  S
C299        C304   1.399       .  A
C299        H305   1.084       .  S
C300        C301   1.399       .  A
C301        C302   1.397       .  A
C301        H306   1.083       .  S
C302        C303   1.407       .  A
C302        H307   1.083       .  S
C304        H308   1.083       .  S
C309        C314   1.399       .  A
C309        H315   1.082       .  S
C310        C311   1.406   1_554  A
C311        C312   1.397       .  A
C311        H316   1.083       .  S
C312        C313   1.400   1_556  A
C312        H317   1.083       .  S
C314        H318   1.083       .  S
C319        C320   1.404       .  A
C319        C324   1.399       .  A
C319        H325   1.083       .  S
C321        C322   1.397       .  A
C321        H326   1.083       .  S
C322        H327   1.083       .  S
C323        C324   1.403       .  A
C324        H328   1.083       .  S
C329        C738   1.403       .  A
C329        C334   1.399       .  A
C329        H335   1.083       .  S
C330        C737   1.403       .  A
C330        C331   1.404   1_565  A
C331        C332   1.398       .  A
C331        H336   1.083       .  S
C332        C333   1.403   1_545  A
C332        H337   1.083       .  S
C333        C742   1.404       .  A
C334        C741   1.404       .  A
C334        H338   1.083       .  S
C339        C340   1.404       .  A
C339        C344   1.398       .  A
C339        H345   1.083       .  S
C340        C749   1.403   1_545  A
C341        C748   1.403       .  A
C341        C342   1.399       .  A
C341        H346   1.083       .  S
C342        C751   1.403       .  A
C342        H347   1.083       .  S
C343        C750   1.403   1_545  A
C343        C344   1.402       .  A
C344        H348   1.083       .  S
C349        C350   1.400       .  A
C349        C354   1.398       .  A
C349        H355   1.084       .  S
C350       C1167   1.400       .  A
C351       C1166   1.400       .  A
C351        C352   1.398       .  A
C351        H356   1.083       .  S
C352       C1169   1.406       .  A
C352        H357   1.083       .  S
C353       C1168   1.406       .  A
C353        C354   1.406       .  A
C354        H358   1.083       .  S
C359       C1176   1.400   1_455  A
C359        C364   1.398       .  A
C359        H365   1.084       .  S
C360       C1175   1.400       .  A
C360        C361   1.400       .  A
C361        C362   1.398       .  A
C361        H366   1.084       .  S
C362        C363   1.407       .  A
C362        H367   1.083       .  S
C363       C1180   1.407       .  A
C364       C1179   1.407   1_455  A
C364        H368   1.083       .  S
C369        C778   1.407       .  A
C369        C374   1.399       .  A
C369        H375   1.083       .  S
C370        C777   1.407       .  A
C370        C371   1.407   1_565  A
C371        C372   1.397       .  A
C371        H376   1.083       .  S
C372        C373   1.399   1_545  A
C372        H377   1.083       .  S
C373        C782   1.401       .  A
C374        C781   1.401       .  A
C374        H378   1.084       .  S
C379        C788   1.404       .  A
C379        C384   1.398       .  A
C379        H385   1.083       .  S
C380        C787   1.404   1_545  A
C380        C381   1.404       .  A
C381        C382   1.398       .  A
C381        H386   1.084       .  S
C382        C383   1.402       .  A
C382        H387   1.083       .  S
C383        C792   1.403   1_545  A
C384        C791   1.403       .  A
C384        H388   1.084       .  S
C389       C1206   1.401       .  A
C389        C394   1.398       .  A
C389        H395   1.083       .  S
C390       C1205   1.401       .  A
C390        C391   1.401   1_655  A
C391        C392   1.398       .  A
C391        H396   1.084       .  S
C392        C393   1.405       .  A
C392        H397   1.083       .  S
C393       C1210   1.406   1_455  A
C394       C1209   1.406       .  A
C394        H398   1.083       .  S
C399        C400   1.400       .  A
C399        C404   1.398       .  A
C399        H405   1.084       .  S
C400       C1217   1.400       .  A
C401       C1216   1.400       .  A
C401        C402   1.398       .  A
C401        H406   1.083       .  S
C402        C403   1.407       .  A
C402        H407   1.083       .  S
C403       C1220   1.407   1_455  A
C404       C1219   1.407       .  A
C404        H408   1.083       .  S
O409        C419   1.264       .  A
O409       V1233   1.901   1_565  S
O410        C420   1.263       .  A
O411        V417   1.898       .  S
O412        C422   1.264       .  A
O412        V825   1.901   1_455  S
O413        V826   1.898   1_545  S
O414        C421   1.265       .  A
O414        V418   1.901       .  S
O415       C1236   1.264   1_655  A
O415       V1234   1.901   1_655  S
O416       C1235   1.263       .  A
V417       O1225   1.901   1_545  S
V417        O820   1.901   1_545  S
V418        O821   1.898       .  S
V418       O1231   1.901       .  S
C419       O1232   1.263   1_655  A
C419        C594   1.465       .  S
C420       O1231   1.264       .  A
C420        C604   1.463       .  S
C421        C584   1.472       .  S
C422        C577   1.463       .  S
O423       C1249   1.265       .  A
O423        V431   1.899       .  S
O424       C1250   1.265       .  A
O424        V431   1.899       .  S
O425        C435   1.263       .  A
O425        V431   1.900       .  S
O426        C436   1.263       .  A
O426        V431   1.898       .  S
O427       C1252   1.263       .  A
O427        V432   1.900       .  S
O428       C1251   1.263   1_455  A
O428        V432   1.898       .  S
O429        C434   1.265   1_455  A
O429        V432   1.899       .  S
O430        C433   1.265       .  A
O430        V432   1.899       .  S
V431       V1248   2.089       .  T
V432       V1247   2.089   1_455  T
C433       O1239   1.265   1_455  A
C433        C607   1.479       .  S
C434       O1240   1.265       .  A
C434        C597   1.476       .  S
C435       O1244   1.263       .  A
C435        C564   1.463       .  S
C436       O1243   1.263       .  A
C436        C554   1.463       .  S
O437        V445   1.897       .  S
O438        V445   1.902       .  S
O439        V445   1.904       .  S
O440        V445   1.896       .  S
O441        C450   1.265       .  A
O441        V446   1.903       .  S
O442        C449   1.264       .  A
O442        V446   1.895       .  S
O443        C448   1.263       .  A
O443        V446   1.898       .  S
O444        C447   1.265       .  A
O444        V446   1.902       .  S
C447        C547   1.469       .  S
C448        C534   1.471       .  S
C449        C574   1.479       .  S
C450        C587   1.469       .  S
O451        C665   1.266       .  A
O451        V663   1.903   1_565  S
O452        C462   1.263       .  A
O453        V459   1.902       .  S
O454        C464   1.263       .  A
O456        C463   1.263       .  A
O456        V460   1.897       .  S
O457        C666   1.265       .  A
O457        V664   1.903       .  S
O458        C461   1.264       .  A
V459        O655   1.903   1_545  S
V460        O661   1.903       .  S
C461        O655   1.266       .  A
C461        C514   1.477       .  S
C462        O661   1.265       .  A
C462        C524   1.472       .  S
C463        C537   1.471       .  S
C464        C544   1.470       .  S
O465       C1291   1.265       .  A
O465       V1289   1.900   1_655  S
O466        C476   1.265       .  A
O466        V677   1.898       .  S
O467        C681   1.264       .  A
O467        V473   1.900       .  S
O468        C478   1.263       .  A
O468       V1493   1.899   1_556  S
O469        C682   1.263       .  A
O469       V1494   1.899   1_455  S
O470        C477   1.264   1_556  A
O470        V474   1.899       .  S
O471       C1292   1.265       .  A
O471       V1290   1.900   1_554  S
O472        C475   1.264       .  A
O472        V678   1.898       .  S
V473       O1281   1.900       .  S
V473        O670   1.898       .  S
V473       O1488   1.899       .  S
V473        V678   2.088       .  T
V474       O1489   1.899   1_556  S
V474       O1287   1.900   1_556  S
V474        O676   1.898       .  S
V474        V677   2.088   1_556  T
C475       O1281   1.265       .  A
C475        C557   1.477       .  S
C476       O1287   1.265       .  A
C476        C567   1.478       .  S
C477        O671   1.264       .  A
C477        C494   1.473       .  S
C478        O673   1.263   1_556  A
C478        C504   1.463       .  S
O479        C693   1.264       .  A
O479        V487   1.901       .  S
O480        C694   1.263   1_554  A
O480        V487   1.897       .  S
O481        C491   1.264       .  A
O481        V487   1.902       .  S
O482        C492   1.264   1_554  A
O482        V487   1.895       .  S
O483        C696   1.266       .  A
O483        V488   1.903       .  S
O484        C695   1.263       .  A
O484        V488   1.897       .  S
O485        C490   1.264       .  A
O485        V488   1.902       .  S
O486        C489   1.263       .  A
O486        V488   1.897       .  S
V487        V692   2.086   1_554  T
V488        V691   2.086       .  T
C489        O683   1.264       .  A
C489        C517   1.464       .  S
C490        O684   1.263       .  A
C490        C527   1.469       .  S
C491        O688   1.263   1_554  A
C491        C497   1.468       .  S
C492        O687   1.266       .  A
C492        C507   1.479       .  S
C493        C698   1.404       .  A
C493        C498   1.398       .  A
C493        H499   1.083       .  S
C494        C697   1.404   1_554  A
C494        C495   1.405       .  A
C495        C496   1.398       .  A
C495        H500   1.083       .  S
C496        C497   1.402       .  A
C496        H501   1.083       .  S
C497        C702   1.402   1_554  A
C498        C701   1.402       .  A
C498        H502   1.083       .  S
C503        C708   1.400       .  A
C503        C508   1.399       .  A
C503        H509   1.084       .  S
C504        C707   1.400       .  A
C504        C505   1.399   1_556  A
C505        C506   1.397       .  A
C505        H510   1.083       .  S
C506        C507   1.407   1_554  A
C506        H511   1.083       .  S
C507        C712   1.407       .  A
C508        C711   1.407       .  A
C508        H512   1.083       .  S
C513        C718   1.406       .  A
C513        C518   1.399       .  A
C513        H519   1.082       .  S
C514        C717   1.406       .  A
C514        C515   1.406       .  A
C515        C516   1.397       .  A
C515        H520   1.083       .  S
C516        C517   1.400       .  A
C516        H521   1.083       .  S
C517        C722   1.401       .  A
C518        C721   1.401       .  A
C518        H522   1.083       .  S
C523        C524   1.404       .  A
C523        C528   1.399       .  A
C523        H529   1.083       .  S
C524        C729   1.404       .  A
C525        C728   1.404   1_554  A
C525        C526   1.397       .  A
C525        H530   1.083       .  S
C526        C731   1.402   1_554  A
C526        H531   1.083       .  S
C527        C730   1.402       .  A
C527        C528   1.403       .  A
C528        H532   1.083       .  S
C533        C538   1.399       .  A
C533        H539   1.083       .  S
C534        C535   1.404       .  A
C535        C536   1.398       .  A
C535        H540   1.083       .  S
C536        C537   1.403       .  A
C536        H541   1.083       .  S
C538        H542   1.083       .  S
C543        C544   1.404       .  A
C543        C548   1.398       .  A
C543        H549   1.083       .  S
C545        C546   1.399       .  A
C545        H550   1.083       .  S
C546        H551   1.083       .  S
C547        C548   1.402       .  A
C548        H552   1.083       .  S
C553        C554   1.400       .  A
C553        C558   1.398       .  A
C553        H559   1.084       .  S
C554       C1371   1.400       .  A
C555       C1370   1.400       .  A
C555        C556   1.398       .  A
C555        H560   1.083       .  S
C556       C1373   1.406       .  A
C556        H561   1.083       .  S
C557       C1372   1.406       .  A
C557        C558   1.406       .  A
C558        H562   1.083       .  S
C563       C1380   1.400   1_455  A
C563        C568   1.398       .  A
C563        H569   1.084       .  S
C564       C1379   1.400       .  A
C564        C565   1.400       .  A
C565        C566   1.398       .  A
C565        H570   1.084       .  S
C566        C567   1.407       .  A
C566        H571   1.083       .  S
C567       C1384   1.407       .  A
C568       C1383   1.407   1_455  A
C568        H572   1.083       .  S
C573        C578   1.399       .  A
C573        H579   1.083       .  S
C574        C575   1.407       .  A
C575        C576   1.397       .  A
C575        H580   1.083       .  S
C576        C577   1.399       .  A
C576        H581   1.083       .  S
C578        H582   1.084       .  S
C583        C588   1.398       .  A
C583        H589   1.083       .  S
C584        C585   1.404       .  A
C585        C586   1.398       .  A
C585        H590   1.084       .  S
C586        C587   1.402       .  A
C586        H591   1.083       .  S
C588        H592   1.084       .  S
C593       C1410   1.401       .  A
C593        C598   1.398       .  A
C593        H599   1.083       .  S
C594       C1409   1.401       .  A
C594        C595   1.401   1_655  A
C595        C596   1.398       .  A
C595        H600   1.084       .  S
C596        C597   1.405   1_455  A
C596        H601   1.083       .  S
C597       C1414   1.406       .  A
C598       C1413   1.406       .  A
C598        H602   1.083       .  S
C603        C604   1.400       .  A
C603        C608   1.398       .  A
C603        H609   1.084       .  S
C604       C1421   1.400       .  A
C605       C1420   1.400       .  A
C605        C606   1.398       .  A
C605        H610   1.083       .  S
C606        C607   1.407       .  A
C606        H611   1.083       .  S
C607       C1424   1.407   1_455  A
C608       C1423   1.407       .  A
C608        H612   1.083       .  S
O613        C623   1.264       .  A
O613       V1437   1.901   1_565  S
O614        C624   1.263       .  A
O615        V621   1.898       .  S
O616        C626   1.264       .  A
O616       V1029   1.901   1_455  S
O617       V1030   1.898   1_545  S
O618        C625   1.265       .  A
O618        V622   1.901       .  S
O619       C1440   1.264   1_655  A
O619       V1438   1.901   1_655  S
O620       C1439   1.263       .  A
V621       O1429   1.901   1_545  S
V621       O1024   1.901   1_545  S
V622       O1025   1.898       .  S
V622       O1435   1.901       .  S
C623       O1436   1.263   1_655  A
C623        C798   1.465       .  S
C624       O1435   1.264       .  A
C624        C808   1.463       .  S
C625        C788   1.472       .  S
C626        C781   1.463       .  S
O627       C1453   1.265       .  A
O627        V635   1.899       .  S
O628       C1454   1.265       .  A
O628        V635   1.899       .  S
O629        C639   1.263       .  A
O629        V635   1.900       .  S
O630        C640   1.263       .  A
O630        V635   1.898       .  S
O631       C1456   1.263       .  A
O631        V636   1.900       .  S
O632       C1455   1.263   1_455  A
O632        V636   1.898       .  S
O633        C638   1.265   1_455  A
O633        V636   1.899       .  S
O634        C637   1.265       .  A
O634        V636   1.899       .  S
V635       V1452   2.089       .  T
V636       V1451   2.089   1_455  T
C637       O1443   1.265   1_455  A
C637        C811   1.479       .  S
C638       O1444   1.265       .  A
C638        C801   1.476       .  S
C639       O1448   1.263       .  A
C639        C768   1.463       .  S
C640       O1447   1.263       .  A
C640        C758   1.463       .  S
O641        V649   1.897       .  S
O642        V649   1.902       .  S
O643        V649   1.904       .  S
O644        V649   1.896       .  S
O645        C654   1.265       .  A
O645        V650   1.903       .  S
O646        C653   1.264       .  A
O646        V650   1.895       .  S
O647        C652   1.263       .  A
O647        V650   1.898       .  S
O648        C651   1.265       .  A
O648        V650   1.902       .  S
C651        C751   1.469       .  S
C652        C738   1.471       .  S
C653        C778   1.479       .  S
C654        C791   1.469       .  S
O656        C666   1.263   1_554  A
O657        V663   1.902   1_556  S
O658        C668   1.263       .  A
O660        C667   1.263       .  A
O660        V664   1.897       .  S
O662        C665   1.264       .  A
C665        C718   1.477       .  S
C666        C728   1.472       .  S
C667        C741   1.471       .  S
C668        C748   1.470       .  S
O669       C1495   1.265       .  A
O669       V1493   1.900   1_656  S
O670        C680   1.265       .  A
O671        V677   1.900       .  S
O672        C682   1.263       .  A
O672       V1289   1.899       .  S
O673       V1290   1.899   1_454  S
O674        C681   1.264       .  A
O674        V678   1.899       .  S
O675       C1496   1.265   1_655  A
O675       V1494   1.900       .  S
O676        C679   1.264       .  A
V677       O1485   1.900   1_554  S
V677       O1284   1.899   1_554  S
V678       O1285   1.899       .  S
V678       O1491   1.900       .  S
C679       O1485   1.265       .  A
C679        C761   1.477       .  S
C680       O1491   1.265       .  A
C680        C771   1.478       .  S
C681        C698   1.473       .  S
C682        C708   1.463       .  S
O683        V691   1.901       .  S
O684        V691   1.897       .  S
O685        C695   1.264       .  A
O685        V691   1.902       .  S
O686        C696   1.264       .  A
O686        V691   1.895       .  S
O687        V692   1.903       .  S
O688        V692   1.897       .  S
O689        C694   1.264       .  A
O689        V692   1.902       .  S
O690        C693   1.263   1_556  A
O690        V692   1.897       .  S
C693        C721   1.464       .  S
C694        C731   1.469       .  S
C695        C701   1.468       .  S
C696        C711   1.479       .  S
C697        C702   1.398       .  A
C697        H703   1.083       .  S
C698        C699   1.405       .  A
C699        C700   1.398       .  A
C699        H704   1.083       .  S
C700        C701   1.402       .  A
C700        H705   1.083       .  S
C702        H706   1.083       .  S
C707        C712   1.399       .  A
C707        H713   1.084       .  S
C708        C709   1.399       .  A
C709        C710   1.397       .  A
C709        H714   1.083       .  S
C710        C711   1.407       .  A
C710        H715   1.083       .  S
C712        H716   1.083       .  S
C717        C722   1.399       .  A
C717        H723   1.082       .  S
C718        C719   1.406   1_554  A
C719        C720   1.397       .  A
C719        H724   1.083       .  S
C720        C721   1.400   1_556  A
C720        H725   1.083       .  S
C722        H726   1.083       .  S
C727        C728   1.404       .  A
C727        C732   1.399       .  A
C727        H733   1.083       .  S
C729        C730   1.397       .  A
C729        H734   1.083       .  S
C730        H735   1.083       .  S
C731        C732   1.403       .  A
C732        H736   1.083       .  S
C737        C742   1.399       .  A
C737        H743   1.083       .  S
C738        C739   1.404       .  A
C739        C740   1.398       .  A
C739        H744   1.083       .  S
C740        C741   1.403       .  A
C740        H745   1.083       .  S
C742        H746   1.083       .  S
C747        C748   1.404       .  A
C747        C752   1.398       .  A
C747        H753   1.083       .  S
C749        C750   1.399       .  A
C749        H754   1.083       .  S
C750        H755   1.083       .  S
C751        C752   1.402       .  A
C752        H756   1.083       .  S
C757        C758   1.400       .  A
C757        C762   1.398       .  A
C757        H763   1.084       .  S
C758       C1575   1.400       .  A
C759       C1574   1.400       .  A
C759        C760   1.398       .  A
C759        H764   1.083       .  S
C760       C1577   1.406       .  A
C760        H765   1.083       .  S
C761       C1576   1.406       .  A
C761        C762   1.406       .  A
C762        H766   1.083       .  S
C767       C1584   1.400   1_455  A
C767        C772   1.398       .  A
C767        H773   1.084       .  S
C768       C1583   1.400       .  A
C768        C769   1.400       .  A
C769        C770   1.398       .  A
C769        H774   1.084       .  S
C770        C771   1.407       .  A
C770        H775   1.083       .  S
C771       C1588   1.407       .  A
C772       C1587   1.407   1_455  A
C772        H776   1.083       .  S
C777        C782   1.399       .  A
C777        H783   1.083       .  S
C778        C779   1.407       .  A
C779        C780   1.397       .  A
C779        H784   1.083       .  S
C780        C781   1.399       .  A
C780        H785   1.083       .  S
C782        H786   1.084       .  S
C787        C792   1.398       .  A
C787        H793   1.083       .  S
C788        C789   1.404       .  A
C789        C790   1.398       .  A
C789        H794   1.084       .  S
C790        C791   1.402       .  A
C790        H795   1.083       .  S
C792        H796   1.084       .  S
C797       C1614   1.401       .  A
C797        C802   1.398       .  A
C797        H803   1.083       .  S
C798       C1613   1.401       .  A
C798        C799   1.401   1_655  A
C799        C800   1.398       .  A
C799        H804   1.084       .  S
C800        C801   1.405   1_455  A
C800        H805   1.083       .  S
C801       C1618   1.406       .  A
C802       C1617   1.406       .  A
C802        H806   1.083       .  S
C807        C808   1.400       .  A
C807        C812   1.398       .  A
C807        H813   1.084       .  S
C808       C1625   1.400       .  A
C809       C1624   1.400       .  A
C809        C810   1.398       .  A
C809        H814   1.083       .  S
C810        C811   1.407       .  A
C810        H815   1.083       .  S
C811       C1628   1.407   1_455  A
C812       C1627   1.407       .  A
C812        H816   1.083       .  S
O817        C827   1.264       .  A
O818        C828   1.263       .  A
O818       V1233   1.898   1_455  S
O819       C1237   1.264       .  A
O819        V825   1.898       .  S
O820        C830   1.264       .  A
O821       C1238   1.263       .  A
O822        C829   1.265   1_565  A
O822        V826   1.901   1_655  S
O824       V1234   1.897       .  S
V825       O1226   1.898   1_655  S
V825       V1234   2.087   1_655  T
V826       O1232   1.897       .  S
V826       V1233   2.087   1_465  T
C827       C1002   1.465       .  S
C828       C1012   1.463       .  S
C829       O1227   1.264       .  A
C829        C992   1.472       .  S
C830       O1229   1.263   1_565  A
C830        C985   1.463       .  S
O831        V839   1.899       .  S
O832        V839   1.899       .  S
O833        C843   1.263       .  A
O833        V839   1.900       .  S
O834        C844   1.263   1_655  A
O834        V839   1.898       .  S
O835        V840   1.900       .  S
O836        V840   1.898       .  S
O837        C842   1.265       .  A
O837        V840   1.899       .  S
O838        C841   1.265       .  A
O838        V840   1.899       .  S
C841       C1015   1.479       .  S
C842       C1005   1.476       .  S
C843        C972   1.463       .  S
C844        C962   1.463       .  S
O845       C1263   1.263       .  A
O845        V853   1.897       .  S
O846       C1264   1.265       .  A
O846        V853   1.902       .  S
O847       C1265   1.266       .  A
O847        V853   1.904       .  S
O848       C1266   1.263       .  A
O848        V853   1.896       .  S
O849        C858   1.265       .  A
O849        V854   1.903       .  S
O850        C857   1.264   1_545  A
O850        V854   1.895       .  S
O851        C856   1.263   1_545  A
O851        V854   1.898       .  S
O852        C855   1.265       .  A
O852        V854   1.902       .  S
V853       V1262   2.088       .  T
V854       V1261   2.088   1_545  T
C855       O1253   1.263   1_545  A
C855        C955   1.469       .  S
C856       O1254   1.265       .  A
C856        C942   1.471       .  S
C857       O1255   1.266       .  A
C857        C982   1.479       .  S
C858       O1256   1.263   1_545  A
C858        C995   1.469       .  S
O859       C1073   1.266       .  A
O859       V1071   1.903       .  S
O860        C870   1.263       .  A
O860       V1275   1.896       .  S
O861       C1279   1.265       .  A
O861        V867   1.902       .  S
O862        C872   1.263       .  A
O862       V1479   1.897       .  S
O863       C1280   1.265       .  A
O863       V1480   1.902   1_554  S
O864        C871   1.263       .  A
O864        V868   1.897       .  S
O865       C1074   1.265       .  A
O865       V1072   1.903   1_545  S
O866        C869   1.264       .  A
O866       V1276   1.895       .  S
V867       O1063   1.903       .  S
V867       O1268   1.896       .  S
V867       O1474   1.897       .  S
V867       V1276   2.088       .  T
V868       O1475   1.902   1_565  S
V868       O1069   1.903   1_565  S
V868       O1274   1.895       .  S
V868       V1275   2.088   1_565  T
C869       O1063   1.266       .  A
C869        C922   1.477       .  S
C870       O1069   1.265       .  A
C870        C932   1.472       .  S
C871       O1269   1.265   1_565  A
C871        C945   1.471       .  S
C872       O1271   1.265       .  A
C872        C952   1.470       .  S
O874        C884   1.265   1_455  A
O874       V1085   1.898       .  S
O875       C1089   1.264       .  A
O875        V881   1.900   1_655  S
O876        C886   1.263       .  A
O877       C1090   1.263       .  A
O878        C885   1.264   1_556  A
O878        V882   1.899       .  S
O880        C883   1.264   1_455  A
O880       V1086   1.898   1_455  S
V881       O1078   1.898       .  S
V881       V1086   2.088   1_455  T
V882       O1084   1.898   1_655  S
V882       V1085   2.088   1_656  T
C883        C965   1.477   1_655  S
C884        C975   1.478       .  S
C885       O1079   1.264       .  A
C885        C902   1.473       .  S
C886       O1081   1.263   1_556  A
C886        C912   1.463       .  S
O887       C1101   1.264       .  A
O887        V895   1.901       .  S
O888       C1102   1.263   1_554  A
O888        V895   1.897       .  S
O889        C899   1.264       .  A
O889        V895   1.902       .  S
O890        C900   1.264   1_554  A
O890        V895   1.895       .  S
O891       C1104   1.266       .  A
O891        V896   1.903       .  S
O892       C1103   1.263       .  A
O892        V896   1.897       .  S
O893        C898   1.264       .  A
O893        V896   1.902       .  S
O894        C897   1.263       .  A
O894        V896   1.897       .  S
V895       V1100   2.086   1_554  T
V896       V1099   2.086       .  T
C897       O1091   1.264       .  A
C897        C925   1.464       .  S
C898       O1092   1.263       .  A
C898        C935   1.469       .  S
C899       O1096   1.263   1_554  A
C899        C905   1.468       .  S
C900       O1095   1.266       .  A
C900        C915   1.479       .  S
C901       C1106   1.404       .  A
C901        C906   1.398       .  A
C901        H907   1.083       .  S
C902       C1105   1.404   1_554  A
C902        C903   1.405       .  A
C903        C904   1.398       .  A
C903        H908   1.083       .  S
C904        C905   1.402       .  A
C904        H909   1.083       .  S
C905       C1110   1.402   1_554  A
C906       C1109   1.402       .  A
C906        H910   1.083       .  S
C911       C1116   1.400       .  A
C911        C916   1.399       .  A
C911        H917   1.084       .  S
C912       C1115   1.400       .  A
C912        C913   1.399   1_556  A
C913        C914   1.397       .  A
C913        H918   1.083       .  S
C914        C915   1.407   1_554  A
C914        H919   1.083       .  S
C915       C1120   1.407       .  A
C916       C1119   1.407       .  A
C916        H920   1.083       .  S
C921       C1126   1.406       .  A
C921        C926   1.399       .  A
C921        H927   1.082       .  S
C922       C1125   1.406       .  A
C922        C923   1.406       .  A
C923        C924   1.397       .  A
C923        H928   1.083       .  S
C924        C925   1.400       .  A
C924        H929   1.083       .  S
C925       C1130   1.401       .  A
C926       C1129   1.401       .  A
C926        H930   1.083       .  S
C931        C932   1.404       .  A
C931        C936   1.399       .  A
C931        H937   1.083       .  S
C932       C1137   1.404       .  A
C933       C1136   1.404   1_554  A
C933        C934   1.397       .  A
C933        H938   1.083       .  S
C934       C1139   1.402   1_554  A
C934        H939   1.083       .  S
C935       C1138   1.402       .  A
C935        C936   1.403       .  A
C936        H940   1.083       .  S
C941       C1350   1.403       .  A
C941        C946   1.399       .  A
C941        H947   1.083       .  S
C942       C1349   1.403       .  A
C942        C943   1.404   1_565  A
C943        C944   1.398       .  A
C943        H948   1.083       .  S
C944        C945   1.403   1_545  A
C944        H949   1.083       .  S
C945       C1354   1.404       .  A
C946       C1353   1.404       .  A
C946        H950   1.083       .  S
C951        C952   1.404       .  A
C951        C956   1.398       .  A
C951        H957   1.083       .  S
C952       C1361   1.403   1_545  A
C953       C1360   1.403       .  A
C953        C954   1.399       .  A
C953        H958   1.083       .  S
C954       C1363   1.403       .  A
C954        H959   1.083       .  S
C955       C1362   1.403   1_545  A
C955        C956   1.402       .  A
C956        H960   1.083       .  S
C961        C962   1.400   1_655  A
C961        C966   1.398       .  A
C961        H967   1.084       .  S
C963        C964   1.398       .  A
C963        H968   1.083       .  S
C964        H969   1.083       .  S
C965        C966   1.406   1_455  A
C966        H970   1.083       .  S
C971        C976   1.398       .  A
C971        H977   1.084       .  S
C972        C973   1.400       .  A
C973        C974   1.398       .  A
C973        H978   1.084       .  S
C974        C975   1.407       .  A
C974        H979   1.083       .  S
C976        H980   1.083       .  S
C981       C1390   1.407       .  A
C981        C986   1.399       .  A
C981        H987   1.083       .  S
C982       C1389   1.407       .  A
C982        C983   1.407   1_565  A
C983        C984   1.397       .  A
C983        H988   1.083       .  S
C984        C985   1.399   1_545  A
C984        H989   1.083       .  S
C985       C1394   1.401       .  A
C986       C1393   1.401       .  A
C986        H990   1.084       .  S
C991       C1400   1.404       .  A
C991        C996   1.398       .  A
C991        H997   1.083       .  S
C992       C1399   1.404   1_545  A
C992        C993   1.404       .  A
C993        C994   1.398       .  A
C993        H998   1.084       .  S
C994        C995   1.402       .  A
C994        H999   1.083       .  S
C995       C1404   1.403   1_545  A
C996       C1403   1.403       .  A
C996       H1000   1.084       .  S
C1001      C1006   1.398       .  A
C1001      H1007   1.083       .  S
C1002      C1003   1.401       .  A
C1003      C1004   1.398       .  A
C1003      H1008   1.084       .  S
C1004      C1005   1.405       .  A
C1004      H1009   1.083       .  S
C1006      H1010   1.083       .  S
C1011      C1012   1.400   1_655  A
C1011      C1016   1.398       .  A
C1011      H1017   1.084       .  S
C1013      C1014   1.398       .  A
C1013      H1018   1.083       .  S
C1014      C1015   1.407       .  A
C1014      H1019   1.083       .  S
C1016      H1020   1.083       .  S
O1021      C1031   1.264       .  A
O1022      C1032   1.263       .  A
O1022      V1437   1.898   1_455  S
O1023      C1441   1.264       .  A
O1023      V1029   1.898       .  S
O1024      C1034   1.264       .  A
O1025      C1442   1.263       .  A
O1026      C1033   1.265   1_565  A
O1026      V1030   1.901   1_655  S
O1028      V1438   1.897       .  S
V1029      O1430   1.898   1_655  S
V1029      V1438   2.087   1_655  T
V1030      O1436   1.897       .  S
V1030      V1437   2.087   1_465  T
C1031      C1206   1.465       .  S
C1032      C1216   1.463       .  S
C1033      O1431   1.264       .  A
C1033      C1196   1.472       .  S
C1034      O1433   1.263   1_565  A
C1034      C1189   1.463       .  S
O1035      V1043   1.899       .  S
O1036      V1043   1.899       .  S
O1037      C1047   1.263       .  A
O1037      V1043   1.900       .  S
O1038      C1048   1.263   1_655  A
O1038      V1043   1.898       .  S
O1039      V1044   1.900       .  S
O1040      V1044   1.898       .  S
O1041      C1046   1.265       .  A
O1041      V1044   1.899       .  S
O1042      C1045   1.265       .  A
O1042      V1044   1.899       .  S
C1045      C1219   1.479       .  S
C1046      C1209   1.476       .  S
C1047      C1176   1.463       .  S
C1048      C1166   1.463       .  S
O1049      C1467   1.263       .  A
O1049      V1057   1.897       .  S
O1050      C1468   1.265       .  A
O1050      V1057   1.902       .  S
O1051      C1469   1.266       .  A
O1051      V1057   1.904       .  S
O1052      C1470   1.263       .  A
O1052      V1057   1.896       .  S
O1053      C1062   1.265       .  A
O1053      V1058   1.903       .  S
O1054      C1061   1.264   1_545  A
O1054      V1058   1.895       .  S
O1055      C1060   1.263   1_545  A
O1055      V1058   1.898       .  S
O1056      C1059   1.265       .  A
O1056      V1058   1.902       .  S
V1057      V1466   2.088       .  T
V1058      V1465   2.088   1_545  T
C1059      O1457   1.263   1_545  A
C1059      C1159   1.469       .  S
C1060      O1458   1.265       .  A
C1060      C1146   1.471       .  S
C1061      O1459   1.266       .  A
C1061      C1186   1.479       .  S
C1062      O1460   1.263   1_545  A
C1062      C1199   1.469       .  S
O1064      C1074   1.263   1_554  A
O1064      V1479   1.896       .  S
O1065      C1483   1.265       .  A
O1065      V1071   1.902   1_556  S
O1066      C1076   1.263       .  A
O1066      V1275   1.897       .  S
O1067      C1484   1.265       .  A
O1067      V1276   1.902       .  S
O1068      C1075   1.263       .  A
O1068      V1072   1.897       .  S
O1070      C1073   1.264       .  A
O1070      V1480   1.895   1_554  S
V1071      O1472   1.896       .  S
V1071      O1270   1.897       .  S
V1071      V1480   2.088   1_554  T
V1072      O1271   1.902   1_566  S
V1072      O1478   1.895   1_556  S
V1072      V1479   2.088   1_566  T
C1073      C1126   1.477       .  S
C1074      C1136   1.472       .  S
C1075      O1473   1.265   1_565  A
C1075      C1149   1.471       .  S
C1076      O1475   1.265       .  A
C1076      C1156   1.470       .  S
O1078      C1088   1.265       .  A
O1079      V1085   1.900   1_655  S
O1080      C1090   1.263       .  A
O1082      C1089   1.264       .  A
O1082      V1086   1.899       .  S
O1084      C1087   1.264   1_455  A
C1087      C1169   1.477   1_655  S
C1088      C1179   1.478   1_455  S
C1089      C1106   1.473       .  S
C1090      C1116   1.463       .  S
O1091      V1099   1.901       .  S
O1092      V1099   1.897       .  S
O1093      C1103   1.264       .  A
O1093      V1099   1.902       .  S
O1094      C1104   1.264       .  A
O1094      V1099   1.895       .  S
O1095      V1100   1.903       .  S
O1096      V1100   1.897       .  S
O1097      C1102   1.264       .  A
O1097      V1100   1.902       .  S
O1098      C1101   1.263   1_556  A
O1098      V1100   1.897       .  S
C1101      C1129   1.464       .  S
C1102      C1139   1.469       .  S
C1103      C1109   1.468       .  S
C1104      C1119   1.479       .  S
C1105      C1110   1.398       .  A
C1105      H1111   1.083       .  S
C1106      C1107   1.405       .  A
C1107      C1108   1.398       .  A
C1107      H1112   1.083       .  S
C1108      C1109   1.402       .  A
C1108      H1113   1.083       .  S
C1110      H1114   1.083       .  S
C1115      C1120   1.399       .  A
C1115      H1121   1.084       .  S
C1116      C1117   1.399       .  A
C1117      C1118   1.397       .  A
C1117      H1122   1.083       .  S
C1118      C1119   1.407       .  A
C1118      H1123   1.083       .  S
C1120      H1124   1.083       .  S
C1125      C1130   1.399       .  A
C1125      H1131   1.082       .  S
C1126      C1127   1.406   1_554  A
C1127      C1128   1.397       .  A
C1127      H1132   1.083       .  S
C1128      C1129   1.400   1_556  A
C1128      H1133   1.083       .  S
C1130      H1134   1.083       .  S
C1135      C1136   1.404       .  A
C1135      C1140   1.399       .  A
C1135      H1141   1.083       .  S
C1137      C1138   1.397       .  A
C1137      H1142   1.083       .  S
C1138      H1143   1.083       .  S
C1139      C1140   1.403       .  A
C1140      H1144   1.083       .  S
C1145      C1554   1.403       .  A
C1145      C1150   1.399       .  A
C1145      H1151   1.083       .  S
C1146      C1553   1.403       .  A
C1146      C1147   1.404   1_565  A
C1147      C1148   1.398       .  A
C1147      H1152   1.083       .  S
C1148      C1149   1.403   1_545  A
C1148      H1153   1.083       .  S
C1149      C1558   1.404       .  A
C1150      C1557   1.404       .  A
C1150      H1154   1.083       .  S
C1155      C1156   1.404       .  A
C1155      C1160   1.398       .  A
C1155      H1161   1.083       .  S
C1156      C1565   1.403   1_545  A
C1157      C1564   1.403       .  A
C1157      C1158   1.399       .  A
C1157      H1162   1.083       .  S
C1158      C1567   1.403       .  A
C1158      H1163   1.083       .  S
C1159      C1566   1.403   1_545  A
C1159      C1160   1.402       .  A
C1160      H1164   1.083       .  S
C1165      C1166   1.400   1_655  A
C1165      C1170   1.398       .  A
C1165      H1171   1.084       .  S
C1167      C1168   1.398       .  A
C1167      H1172   1.083       .  S
C1168      H1173   1.083       .  S
C1169      C1170   1.406   1_455  A
C1170      H1174   1.083       .  S
C1175      C1180   1.398       .  A
C1175      H1181   1.084       .  S
C1176      C1177   1.400       .  A
C1177      C1178   1.398       .  A
C1177      H1182   1.084       .  S
C1178      C1179   1.407       .  A
C1178      H1183   1.083       .  S
C1180      H1184   1.083       .  S
C1185      C1594   1.407       .  A
C1185      C1190   1.399       .  A
C1185      H1191   1.083       .  S
C1186      C1593   1.407       .  A
C1186      C1187   1.407   1_565  A
C1187      C1188   1.397       .  A
C1187      H1192   1.083       .  S
C1188      C1189   1.399   1_545  A
C1188      H1193   1.083       .  S
C1189      C1598   1.401       .  A
C1190      C1597   1.401       .  A
C1190      H1194   1.084       .  S
C1195      C1604   1.404       .  A
C1195      C1200   1.398       .  A
C1195      H1201   1.083       .  S
C1196      C1603   1.404   1_545  A
C1196      C1197   1.404       .  A
C1197      C1198   1.398       .  A
C1197      H1202   1.084       .  S
C1198      C1199   1.402       .  A
C1198      H1203   1.083       .  S
C1199      C1608   1.403   1_545  A
C1200      C1607   1.403       .  A
C1200      H1204   1.084       .  S
C1205      C1210   1.398       .  A
C1205      H1211   1.083       .  S
C1206      C1207   1.401       .  A
C1207      C1208   1.398       .  A
C1207      H1212   1.084       .  S
C1208      C1209   1.405       .  A
C1208      H1213   1.083       .  S
C1210      H1214   1.083       .  S
C1215      C1216   1.400   1_655  A
C1215      C1220   1.398       .  A
C1215      H1221   1.084       .  S
C1217      C1218   1.398       .  A
C1217      H1222   1.083       .  S
C1218      C1219   1.407       .  A
C1218      H1223   1.083       .  S
C1220      H1224   1.083       .  S
O1225      C1235   1.264       .  A
O1226      C1236   1.263       .  A
O1227      V1233   1.898       .  S
O1228      C1238   1.264       .  A
O1230      C1237   1.265       .  A
O1230      V1234   1.901   1_655  S
C1235      C1410   1.465       .  S
C1236      C1420   1.463       .  S
C1237      C1400   1.472       .  S
C1238      C1393   1.463       .  S
O1239      V1247   1.899       .  S
O1240      V1247   1.899       .  S
O1241      C1251   1.263       .  A
O1241      V1247   1.900       .  S
O1242      C1252   1.263   1_655  A
O1242      V1247   1.898       .  S
O1243      V1248   1.900       .  S
O1244      V1248   1.898       .  S
O1245      C1250   1.265       .  A
O1245      V1248   1.899       .  S
O1246      C1249   1.265       .  A
O1246      V1248   1.899       .  S
C1249      C1423   1.479       .  S
C1250      C1413   1.476       .  S
C1251      C1380   1.463       .  S
C1252      C1370   1.463       .  S
O1253      V1261   1.897       .  S
O1254      V1261   1.902       .  S
O1255      V1261   1.904       .  S
O1256      V1261   1.896       .  S
O1257      C1266   1.265       .  A
O1257      V1262   1.903       .  S
O1258      C1265   1.264       .  A
O1258      V1262   1.895       .  S
O1259      C1264   1.263       .  A
O1259      V1262   1.898       .  S
O1260      C1263   1.265       .  A
O1260      V1262   1.902       .  S
C1263      C1363   1.469       .  S
C1264      C1350   1.471       .  S
C1265      C1390   1.479       .  S
C1266      C1403   1.469       .  S
O1267      C1481   1.266       .  A
O1267      V1479   1.903   1_565  S
O1268      C1278   1.263       .  A
O1269      V1275   1.902       .  S
O1270      C1280   1.263       .  A
O1272      C1279   1.263       .  A
O1272      V1276   1.897       .  S
O1273      C1482   1.265       .  A
O1273      V1480   1.903       .  S
O1274      C1277   1.264       .  A
V1275      O1471   1.903   1_545  S
V1276      O1477   1.903       .  S
C1277      O1471   1.266       .  A
C1277      C1330   1.477       .  S
C1278      O1477   1.265       .  A
C1278      C1340   1.472       .  S
C1279      C1353   1.471       .  S
C1280      C1360   1.470       .  S
O1282      C1292   1.265   1_455  A
O1282      V1493   1.898       .  S
O1283      C1497   1.264       .  A
O1283      V1289   1.900   1_655  S
O1284      C1294   1.263       .  A
O1285      C1498   1.263       .  A
O1286      C1293   1.264   1_556  A
O1286      V1290   1.899       .  S
O1288      C1291   1.264   1_455  A
O1288      V1494   1.898   1_455  S
V1289      O1486   1.898       .  S
V1289      V1494   2.088   1_455  T
V1290      O1492   1.898   1_655  S
V1290      V1493   2.088   1_656  T
C1291      C1373   1.477   1_655  S
C1292      C1383   1.478       .  S
C1293      O1487   1.264       .  A
C1293      C1310   1.473       .  S
C1294      O1489   1.263   1_556  A
C1294      C1320   1.463       .  S
O1295      C1509   1.264       .  A
O1295      V1303   1.901       .  S
O1296      C1510   1.263   1_554  A
O1296      V1303   1.897       .  S
O1297      C1307   1.264       .  A
O1297      V1303   1.902       .  S
O1298      C1308   1.264   1_554  A
O1298      V1303   1.895       .  S
O1299      C1512   1.266       .  A
O1299      V1304   1.903       .  S
O1300      C1511   1.263       .  A
O1300      V1304   1.897       .  S
O1301      C1306   1.264       .  A
O1301      V1304   1.902       .  S
O1302      C1305   1.263       .  A
O1302      V1304   1.897       .  S
V1303      V1508   2.086   1_554  T
V1304      V1507   2.086       .  T
C1305      O1499   1.264       .  A
C1305      C1333   1.464       .  S
C1306      O1500   1.263       .  A
C1306      C1343   1.469       .  S
C1307      O1504   1.263   1_554  A
C1307      C1313   1.468       .  S
C1308      O1503   1.266       .  A
C1308      C1323   1.479       .  S
C1309      C1514   1.404       .  A
C1309      C1314   1.398       .  A
C1309      H1315   1.083       .  S
C1310      C1513   1.404   1_554  A
C1310      C1311   1.405       .  A
C1311      C1312   1.398       .  A
C1311      H1316   1.083       .  S
C1312      C1313   1.402       .  A
C1312      H1317   1.083       .  S
C1313      C1518   1.402   1_554  A
C1314      C1517   1.402       .  A
C1314      H1318   1.083       .  S
C1319      C1524   1.400       .  A
C1319      C1324   1.399       .  A
C1319      H1325   1.084       .  S
C1320      C1523   1.400       .  A
C1320      C1321   1.399   1_556  A
C1321      C1322   1.397       .  A
C1321      H1326   1.083       .  S
C1322      C1323   1.407   1_554  A
C1322      H1327   1.083       .  S
C1323      C1528   1.407       .  A
C1324      C1527   1.407       .  A
C1324      H1328   1.083       .  S
C1329      C1534   1.406       .  A
C1329      C1334   1.399       .  A
C1329      H1335   1.082       .  S
C1330      C1533   1.406       .  A
C1330      C1331   1.406       .  A
C1331      C1332   1.397       .  A
C1331      H1336   1.083       .  S
C1332      C1333   1.400       .  A
C1332      H1337   1.083       .  S
C1333      C1538   1.401       .  A
C1334      C1537   1.401       .  A
C1334      H1338   1.083       .  S
C1339      C1340   1.404       .  A
C1339      C1344   1.399       .  A
C1339      H1345   1.083       .  S
C1340      C1545   1.404       .  A
C1341      C1544   1.404   1_554  A
C1341      C1342   1.397       .  A
C1341      H1346   1.083       .  S
C1342      C1547   1.402   1_554  A
C1342      H1347   1.083       .  S
C1343      C1546   1.402       .  A
C1343      C1344   1.403       .  A
C1344      H1348   1.083       .  S
C1349      C1354   1.399       .  A
C1349      H1355   1.083       .  S
C1350      C1351   1.404       .  A
C1351      C1352   1.398       .  A
C1351      H1356   1.083       .  S
C1352      C1353   1.403       .  A
C1352      H1357   1.083       .  S
C1354      H1358   1.083       .  S
C1359      C1360   1.404       .  A
C1359      C1364   1.398       .  A
C1359      H1365   1.083       .  S
C1361      C1362   1.399       .  A
C1361      H1366   1.083       .  S
C1362      H1367   1.083       .  S
C1363      C1364   1.402       .  A
C1364      H1368   1.083       .  S
C1369      C1370   1.400   1_655  A
C1369      C1374   1.398       .  A
C1369      H1375   1.084       .  S
C1371      C1372   1.398       .  A
C1371      H1376   1.083       .  S
C1372      H1377   1.083       .  S
C1373      C1374   1.406   1_455  A
C1374      H1378   1.083       .  S
C1379      C1384   1.398       .  A
C1379      H1385   1.084       .  S
C1380      C1381   1.400       .  A
C1381      C1382   1.398       .  A
C1381      H1386   1.084       .  S
C1382      C1383   1.407       .  A
C1382      H1387   1.083       .  S
C1384      H1388   1.083       .  S
C1389      C1394   1.399       .  A
C1389      H1395   1.083       .  S
C1390      C1391   1.407       .  A
C1391      C1392   1.397       .  A
C1391      H1396   1.083       .  S
C1392      C1393   1.399       .  A
C1392      H1397   1.083       .  S
C1394      H1398   1.084       .  S
C1399      C1404   1.398       .  A
C1399      H1405   1.083       .  S
C1400      C1401   1.404       .  A
C1401      C1402   1.398       .  A
C1401      H1406   1.084       .  S
C1402      C1403   1.402       .  A
C1402      H1407   1.083       .  S
C1404      H1408   1.084       .  S
C1409      C1414   1.398       .  A
C1409      H1415   1.083       .  S
C1410      C1411   1.401       .  A
C1411      C1412   1.398       .  A
C1411      H1416   1.084       .  S
C1412      C1413   1.405       .  A
C1412      H1417   1.083       .  S
C1414      H1418   1.083       .  S
C1419      C1420   1.400   1_655  A
C1419      C1424   1.398       .  A
C1419      H1425   1.084       .  S
C1421      C1422   1.398       .  A
C1421      H1426   1.083       .  S
C1422      C1423   1.407       .  A
C1422      H1427   1.083       .  S
C1424      H1428   1.083       .  S
O1429      C1439   1.264       .  A
O1430      C1440   1.263       .  A
O1431      V1437   1.898       .  S
O1432      C1442   1.264       .  A
O1434      C1441   1.265       .  A
O1434      V1438   1.901   1_655  S
C1439      C1614   1.465       .  S
C1440      C1624   1.463       .  S
C1441      C1604   1.472       .  S
C1442      C1597   1.463       .  S
O1443      V1451   1.899       .  S
O1444      V1451   1.899       .  S
O1445      C1455   1.263       .  A
O1445      V1451   1.900       .  S
O1446      C1456   1.263   1_655  A
O1446      V1451   1.898       .  S
O1447      V1452   1.900       .  S
O1448      V1452   1.898       .  S
O1449      C1454   1.265       .  A
O1449      V1452   1.899       .  S
O1450      C1453   1.265       .  A
O1450      V1452   1.899       .  S
C1453      C1627   1.479       .  S
C1454      C1617   1.476       .  S
C1455      C1584   1.463       .  S
C1456      C1574   1.463       .  S
O1457      V1465   1.897       .  S
O1458      V1465   1.902       .  S
O1459      V1465   1.904       .  S
O1460      V1465   1.896       .  S
O1461      C1470   1.265       .  A
O1461      V1466   1.903       .  S
O1462      C1469   1.264       .  A
O1462      V1466   1.895       .  S
O1463      C1468   1.263       .  A
O1463      V1466   1.898       .  S
O1464      C1467   1.265       .  A
O1464      V1466   1.902       .  S
C1467      C1567   1.469       .  S
C1468      C1554   1.471       .  S
C1469      C1594   1.479       .  S
C1470      C1607   1.469       .  S
O1472      C1482   1.263   1_554  A
O1473      V1479   1.902   1_556  S
O1474      C1484   1.263       .  A
O1476      C1483   1.263       .  A
O1476      V1480   1.897       .  S
O1478      C1481   1.264       .  A
C1481      C1534   1.477       .  S
C1482      C1544   1.472       .  S
C1483      C1557   1.471       .  S
C1484      C1564   1.470       .  S
O1486      C1496   1.265       .  A
O1487      V1493   1.900   1_655  S
O1488      C1498   1.263       .  A
O1490      C1497   1.264       .  A
O1490      V1494   1.899       .  S
O1492      C1495   1.264   1_455  A
C1495      C1577   1.477   1_655  S
C1496      C1587   1.478   1_455  S
C1497      C1514   1.473       .  S
C1498      C1524   1.463       .  S
O1499      V1507   1.901       .  S
O1500      V1507   1.897       .  S
O1501      C1511   1.264       .  A
O1501      V1507   1.902       .  S
O1502      C1512   1.264       .  A
O1502      V1507   1.895       .  S
O1503      V1508   1.903       .  S
O1504      V1508   1.897       .  S
O1505      C1510   1.264       .  A
O1505      V1508   1.902       .  S
O1506      C1509   1.263   1_556  A
O1506      V1508   1.897       .  S
C1509      C1537   1.464       .  S
C1510      C1547   1.469       .  S
C1511      C1517   1.468       .  S
C1512      C1527   1.479       .  S
C1513      C1518   1.398       .  A
C1513      H1519   1.083       .  S
C1514      C1515   1.405       .  A
C1515      C1516   1.398       .  A
C1515      H1520   1.083       .  S
C1516      C1517   1.402       .  A
C1516      H1521   1.083       .  S
C1518      H1522   1.083       .  S
C1523      C1528   1.399       .  A
C1523      H1529   1.084       .  S
C1524      C1525   1.399       .  A
C1525      C1526   1.397       .  A
C1525      H1530   1.083       .  S
C1526      C1527   1.407       .  A
C1526      H1531   1.083       .  S
C1528      H1532   1.083       .  S
C1533      C1538   1.399       .  A
C1533      H1539   1.082       .  S
C1534      C1535   1.406   1_554  A
C1535      C1536   1.397       .  A
C1535      H1540   1.083       .  S
C1536      C1537   1.400   1_556  A
C1536      H1541   1.083       .  S
C1538      H1542   1.083       .  S
C1543      C1544   1.404       .  A
C1543      C1548   1.399       .  A
C1543      H1549   1.083       .  S
C1545      C1546   1.397       .  A
C1545      H1550   1.083       .  S
C1546      H1551   1.083       .  S
C1547      C1548   1.403       .  A
C1548      H1552   1.083       .  S
C1553      C1558   1.399       .  A
C1553      H1559   1.083       .  S
C1554      C1555   1.404       .  A
C1555      C1556   1.398       .  A
C1555      H1560   1.083       .  S
C1556      C1557   1.403       .  A
C1556      H1561   1.083       .  S
C1558      H1562   1.083       .  S
C1563      C1564   1.404       .  A
C1563      C1568   1.398       .  A
C1563      H1569   1.083       .  S
C1565      C1566   1.399       .  A
C1565      H1570   1.083       .  S
C1566      H1571   1.083       .  S
C1567      C1568   1.402       .  A
C1568      H1572   1.083       .  S
C1573      C1574   1.400   1_655  A
C1573      C1578   1.398       .  A
C1573      H1579   1.084       .  S
C1575      C1576   1.398       .  A
C1575      H1580   1.083       .  S
C1576      H1581   1.083       .  S
C1577      C1578   1.406   1_455  A
C1578      H1582   1.083       .  S
C1583      C1588   1.398       .  A
C1583      H1589   1.084       .  S
C1584      C1585   1.400       .  A
C1585      C1586   1.398       .  A
C1585      H1590   1.084       .  S
C1586      C1587   1.407       .  A
C1586      H1591   1.083       .  S
C1588      H1592   1.083       .  S
C1593      C1598   1.399       .  A
C1593      H1599   1.083       .  S
C1594      C1595   1.407       .  A
C1595      C1596   1.397       .  A
C1595      H1600   1.083       .  S
C1596      C1597   1.399       .  A
C1596      H1601   1.083       .  S
C1598      H1602   1.084       .  S
C1603      C1608   1.398       .  A
C1603      H1609   1.083       .  S
C1604      C1605   1.404       .  A
C1605      C1606   1.398       .  A
C1605      H1610   1.084       .  S
C1606      C1607   1.402       .  A
C1606      H1611   1.083       .  S
C1608      H1612   1.084       .  S
C1613      C1618   1.398       .  A
C1613      H1619   1.083       .  S
C1614      C1615   1.401       .  A
C1615      C1616   1.398       .  A
C1615      H1620   1.084       .  S
C1616      C1617   1.405       .  A
C1616      H1621   1.083       .  S
C1618      H1622   1.083       .  S
C1623      C1624   1.400   1_655  A
C1623      C1628   1.398       .  A
C1623      H1629   1.084       .  S
C1625      C1626   1.398       .  A
C1625      H1630   1.083       .  S
C1626      C1627   1.407       .  A
C1626      H1631   1.083       .  S
C1628      H1632   1.083       .  S
