geometry optimzed in LAMMPS
_audit_creation_date              2020-12-01 
_audit_creation_method            'lammps2cif' 
_symmetry_space_group_name_H-M    'P1' 
_symmetry_Int_Tables_number       1 
_symmetry_cell_setting            triclinic 
loop_ 
_symmetry_equiv_pos_as_xyz 
  x,y,z 
_cell_length_a                    27.43295295 
_cell_length_b                    42.70271293373031 
_cell_length_c                    44.51523407007614 
_cell_angle_alpha                 89.43616027725942 
_cell_angle_beta                  100.8614285984195 
_cell_angle_gamma                 91.26432708288729 
loop_ 
_atom_site_label 
_atom_site_type_symbol 
_atom_site_fract_x 
_atom_site_fract_y 
_atom_site_fract_z 
_atom_site_charge 
C1          C  0.28529256  0.19726677  0.42519824     0.85600
C2          C  0.25325231  0.21613226  0.44315236    -0.54700
C3          C  0.26039534  0.20942716  0.47384632     0.08500
C4          C  0.29936282  0.18398404  0.48363455     0.19500
C5          C  0.33951481  0.20246327  0.44211439    -0.55400
C6          C  0.34662121  0.19584197  0.47282352     0.08600
C7          C  0.27526172  0.16280138  0.43273405    -0.54900
C8          C  0.28055240  0.15615087  0.46296186     0.09200
H9          H  0.22634426  0.23262416  0.43177574     0.13700
H10         H  0.30584625  0.17738446  0.00822996    -0.00600
H11         H  0.36978207  0.20978553  0.43096465     0.14000
H12         H  0.26561274  0.14456456  0.41569178     0.13800
C13         C  0.45290914  0.21094408  0.04172322     0.85600
C14         C  0.47853114  0.23247439  0.02136970    -0.54700
C15         C  0.47708294  0.22167839  0.49228942     0.08500
C16         C  0.44553485  0.19116863  0.48540107     0.19500
C17         C  0.39906330  0.20883611  0.02346587    -0.55400
C18         C  0.39536353  0.19878697  0.49402225     0.08600
C19         C  0.47399257  0.17844726  0.03903962    -0.54900
C20         C  0.46909784  0.16733486  0.00996979     0.09200
H21         H  0.99450364  0.25521740  0.02868555     0.13700
H22         H  0.44140543  0.18228752  0.46177874    -0.00600
H23         H  0.36697287  0.21622830  0.03236481     0.14000
H24         H  0.48998424  0.16478675  0.05906082     0.13800
O25         O  0.19834969  0.42413775  0.48585698    -0.75300
O26         O  0.21047079  0.01294735  0.48547997    -0.75400
O27         O  0.19257204  0.46816541  0.44178911    -0.75400
O28         O  0.21740789  0.46763191  0.02969155    -0.75500
O29         O  0.29839971  0.46368144  0.02988099    -0.75400
O30         O  0.27395923  0.46485093  0.44277529    -0.75400
O31         O  0.29178771  0.00937605  0.48651830    -0.75400
O32         O  0.27936636  0.41958937  0.48649635    -0.75400
Ni33       Ni  0.20192360  0.46845313  0.48569265     1.25400
Ni34       Ni  0.28891371  0.46434425  0.48648385     1.25400
C35         C  0.23646566  0.40720358  0.48681037     0.86800
C36         C  0.25312659  0.02585817  0.48608916     0.86800
C37         C  0.22930303  0.46591345  0.42793077     0.86800
C38         C  0.26217982  0.46479142  0.04420574     0.87000
O39         O  0.45913927  0.47435118  0.44290255    -0.75300
O40         O  0.47951452  0.46995533  0.02956622    -0.75400
O41         O  0.46021518  0.01663744  0.48846651    -0.75400
O42         O  0.47911063  0.42780898  0.48495425    -0.75500
O43         O  0.05969806  0.43656406  0.48816107    -0.75400
O44         O  0.04199679  0.02502071  0.48999066    -0.75400
O45         O  0.05983790  0.47929939  0.03309806    -0.75400
O46         O  0.03933767  0.48181989  0.44482347    -0.75400
Ni47       Ni  0.46661310  0.47195851  0.48625306     1.25400
Ni48       Ni  0.05289133  0.48093505  0.48903466     1.25400
C49         C  0.49587943  0.47812653  0.42929821     0.86800
C50         C  0.02213127  0.47408401  0.04591278     0.86800
C51         C  0.49797875  0.03530607  0.49042740     0.86800
C52         C  0.02250492  0.41755591  0.48608568     0.87000
C53         C  0.19932042  0.23098650  0.04270148     0.85600
C54         C  0.21086766  0.26586866  0.03911809    -0.54700
C55         C  0.20767983  0.27582487  0.00985443     0.08500
C56         C  0.19299773  0.24991292  0.48598785     0.19500
C57         C  0.14671358  0.22679003  0.02282108    -0.55400
C58         C  0.14379949  0.23674913  0.49314649     0.08600
C59         C  0.23351064  0.21395716  0.02499045    -0.54900
C60         C  0.23092260  0.22363185  0.49517314     0.09200
H61         H  0.21975005  0.28179962  0.05835121     0.13700
H62         H  0.18941240  0.25896967  0.46231136    -0.00600
H63         H  0.11405837  0.21886973  0.03130221     0.14000
H64         H  0.25739013  0.19560273  0.03574054     0.13800
C65         C  0.03688096  0.24572374  0.42340317     0.85600
C66         C  0.03827999  0.28065997  0.43095706    -0.54700
C67         C  0.04523178  0.28723047  0.46123821     0.08500
C68         C  0.05225338  0.25794926  0.48182428     0.19500
C69         C  0.08784784  0.23471936  0.44131194    -0.55400
C70         C  0.09557127  0.24101774  0.47199616     0.08600
C71         C  0.99844181  0.23052159  0.44031773    -0.54900
C72         C  0.00633039  0.23668132  0.47089993     0.09200
H73         H  0.03527685  0.29903974  0.41377810     0.13700
H74         H  0.05893747  0.26357440  0.00653227    -0.00600
H75         H  0.11638589  0.22456103  0.43080214     0.14000
H76         H  0.46778862  0.21609468  0.42871929     0.13800
C77         C  0.05062821  0.45859191  0.17862373     0.85600
C78         C  0.02065314  0.47876978  0.19693711    -0.54700
C79         C  0.02156008  0.46892437  0.22646544     0.08500
C80         C  0.05423251  0.44015202  0.23511805     0.19500
C81         C  0.10344163  0.45751628  0.19763648    -0.55400
C82         C  0.10529927  0.44841564  0.22716870     0.08600
C83         C  0.03132206  0.42478999  0.18207462    -0.54900
C84         C  0.03177537  0.41538193  0.21148443     0.09200
H85         H  0.49961514  0.49855257  0.18659811     0.13700
H86         H  0.05679662  0.43188708  0.25891706    -0.00600
H87         H  0.13707430  0.46087235  0.18862330     0.14000
H88         H  0.01974928  0.40928079  0.16275194     0.13800
C89         C  0.21151426  0.44750691  0.29670122     0.85600
C90         C  0.24809132  0.46305457  0.27817706    -0.54700
C91         C  0.24064380  0.45460800  0.24798441     0.08500
C92         C  0.19881402  0.42935063  0.23974406     0.19500
C93         C  0.15960564  0.45352916  0.27812444    -0.55400
C94         C  0.15281558  0.44413261  0.24859276     0.08600
C95         C  0.21954016  0.41227522  0.29272661    -0.54900
C96         C  0.21263563  0.40242333  0.26311053     0.09200
H97         H  0.27927358  0.47766253  0.28818972     0.13700
H98         H  0.19163429  0.42110425  0.21580699    -0.00600
H99         H  0.13057892  0.46454004  0.28762542     0.14000
H100        H  0.22942005  0.39627840  0.31193026     0.13800
O101        O  0.20338544  0.20336061  0.27539474    -0.75300
O102        O  0.18394180  0.20996888  0.18802687    -0.75400
O103        O  0.20140924  0.16212756  0.22890170    -0.75400
O104        O  0.18595416  0.25113467  0.23512493    -0.75500
O105        O  0.26732609  0.25864779  0.23764188    -0.75400
O106        O  0.28295729  0.17006542  0.23240566    -0.75400
O107        O  0.26542471  0.21698356  0.19148494    -0.75400
O108        O  0.28466036  0.21155701  0.27890455    -0.75400
Ni109      Ni  0.19072273  0.20639896  0.23171877     1.25400
Ni110      Ni  0.27793635  0.21456992  0.23522759     1.25400
C111        C  0.24693583  0.20676568  0.29161294     0.86800
C112        C  0.22178470  0.21372264  0.17521321     0.86800
C113        C  0.24487924  0.15162169  0.22910019     0.86800
C114        C  0.22432536  0.26941626  0.23822814     0.87000
O115        O  0.04121983  0.22497713  0.27879485    -0.75300
O116        O  0.02176464  0.22498117  0.19082896    -0.75400
O117        O  0.03483945  0.26995379  0.23487790    -0.75400
O118        O  0.02900629  0.18027651  0.23526073    -0.75500
O119        O  0.44761153  0.18199413  0.23395792    -0.75400
O120        O  0.45173290  0.27141973  0.23005902    -0.75400
O121        O  0.43993473  0.22498814  0.18845917    -0.75400
O122        O  0.45886894  0.22840750  0.27544625    -0.75400
Ni123      Ni  0.03472641  0.22505217  0.23499866     1.25400
Ni124      Ni  0.44668826  0.22670547  0.23187367     1.25400
C125        C  0.00313679  0.22701097  0.29147277     0.86800
C126        C  0.47721253  0.22443390  0.17508114     0.86800
C127        C  0.99474145  0.28542410  0.23234175     0.86800
C128        C  0.48729781  0.16642393  0.23496512     0.87000
C129        C  0.29833835  0.47645086  0.17678221     0.85600
C130        C  0.28016005  0.00979617  0.17756545    -0.54700
C131        C  0.28459742  0.02213136  0.20598424     0.08500
C132        C  0.30421154  0.99855479  0.23171320     0.19500
C133        C  0.35103989  0.47616472  0.19654962    -0.55400
C134        C  0.35445830  0.48859377  0.22495766     0.08600
C135        C  0.26666544  0.45789255  0.19638276    -0.54900
C136        C  0.26949963  0.46908487  0.22549403     0.09200
H137        H  0.26392551  0.02240281  0.15695026     0.13700
H138        H  0.30762437  0.00873130  0.25480863    -0.00600
H139        H  0.38304218  0.46683830  0.18886668     0.14000
H140        H  0.24449067  0.43753557  0.18822050     0.13800
C141        C  0.46151579  0.49263479  0.29523271     0.85600
C142        C  0.47112009  0.02732316  0.28869448    -0.54700
C143        C  0.46613596  0.03486380  0.25850617     0.08500
C144        C  0.45011401  0.00710720  0.23686403     0.19500
C145        C  0.40844495  0.48609459  0.27673709    -0.55400
C146        C  0.40265159  0.49332615  0.24643673     0.08600
C147        C  0.49529648  0.47472876  0.27763377    -0.54900
C148        C  0.49043739  0.48256702  0.24721188     0.09200
H149        H  0.48162422  0.04456698  0.30667023     0.13700
H150        H  0.44435132  0.01394032  0.21241390    -0.00600
H151        H  0.37733448  0.47638529  0.28567400     0.14000
H152        H  0.02115793  0.45794981  0.28912418     0.13800
C153        C  0.48461133  0.13180537  0.23655552    -0.07000
C154        C  0.52497095  0.11546592  0.25299547    -0.18200
C155        C  0.52123265  0.08322520  0.25833808     0.10200
C156        C  0.47551992  0.06712093  0.24825495    -0.07000
C157        C  0.43634237  0.08301426  0.23026752    -0.18200
C158        C  0.44109219  0.11486418  0.22358782     0.10200
S159        S  0.07607636  0.06369033  0.27687864    -0.33200
S160        S  0.39165563  0.13270565  0.19736081    -0.33200
H161        H  0.42461951  0.14928254  0.18206310     0.28200
H162        H  0.56424156  0.03477269  0.26384182     0.28200
H163        H  0.05929551  0.12765489  0.26146905     0.18800
H164        H  0.40156912  0.07072128  0.22202553     0.18800
C165        C  0.25172280  0.11815675  0.22332635    -0.07000
C166        C  0.27285462  0.11102723  0.19808296    -0.18200
C167        C  0.28469848  0.08038649  0.19207127     0.10200
C168        C  0.27311013  0.05544227  0.21111368    -0.07000
C169        C  0.24992583  0.06254276  0.23573751    -0.18200
C170        C  0.23973225  0.09355215  0.24223016     0.10200
S171        S  0.31733291  0.07575091  0.16083755    -0.33200
S172        S  0.21331716  0.10024345  0.27551937    -0.33200
H173        H  0.24052455  0.12817349  0.28358112     0.28200
H174        H  0.35119820  0.05453876  0.17689702     0.28200
H175        H  0.28154767  0.12982184  0.18327115     0.18800
H176        H  0.24009033  0.04387016  0.25028135     0.18800
C177        C  0.21507774  0.36845923  0.25533314    -0.07000
C178        C  0.19054030  0.34618112  0.27109079    -0.18200
C179        C  0.19418028  0.31392580  0.26642760     0.10200
C180        C  0.21957167  0.30328709  0.24383500    -0.07000
C181        C  0.24404218  0.32531138  0.22805951    -0.18200
C182        C  0.24334332  0.35746518  0.23419077     0.10200
S183        S  0.17117449  0.28725041  0.29238877    -0.33200
S184        S  0.28375278  0.38241469  0.21672072    -0.33200
H185        H  0.29905079  0.40114250  0.24273007     0.28200
H186        H  0.21326748  0.26839904  0.29690424     0.28200
H187        H  0.17009117  0.35389414  0.28815767     0.18800
H188        H  0.26555616  0.31728375  0.21166032     0.18800
C189        C  0.01539976  0.38355909  0.21964553    -0.07000
C190        C  0.04313145  0.36831366  0.24513616    -0.18200
C191        C  0.03274668  0.33716079  0.25180147     0.10200
C192        C  0.99752798  0.31981445  0.23103291    -0.07000
C193        C  0.46614087  0.33549152  0.20694991    -0.18200
C194        C  0.47340389  0.36747991  0.20182578     0.10200
S195        S  0.06269177  0.32156371  0.28813687    -0.33200
S196        S  0.42767983  0.38637852  0.17333000    -0.33200
H197        H  0.43242875  0.41568345  0.18788972     0.28200
H198        H  0.02610297  0.29857472  0.29047964     0.28200
H199        H  0.07347691  0.38039248  0.25988374     0.18800
H200        H  0.43705808  0.32265593  0.19184590     0.18800
C201        C  0.00931197  0.22916586  0.32496652    -0.07000
C202        C  0.98393391  0.25261498  0.33681355    -0.18200
C203        C  0.98897553  0.25699954  0.36824025     0.10200
C204        C  0.02462093  0.23941343  0.38891119    -0.07000
C205        C  0.04704876  0.21425226  0.37677351    -0.18200
C206        C  0.03840296  0.20842685  0.34526516     0.10200
S207        S  0.44746072  0.28560904  0.37905644    -0.33200
S208        S  0.06091250  0.17250190  0.33271311    -0.33200
H209        H  0.02310442  0.16848728  0.30684135     0.28200
H210        H  0.94112778  0.27021862  0.40624576     0.28200
H211        H  0.45886818  0.26768767  0.32129392     0.18800
H212        H  0.06976858  0.19804649  0.39183632     0.18800
C213        C  0.20745707  0.22192494  0.07677649    -0.07000
C214        C  0.17069631  0.20560276  0.08929002    -0.18200
C215        C  0.17495352  0.20133533  0.12099020     0.10200
C216        C  0.21596658  0.21474386  0.14123783    -0.07000
C217        C  0.25397612  0.22922916  0.12871991    -0.18200
C218        C  0.25156627  0.23154628  0.09710286     0.10200
S219        S  0.12775807  0.17746507  0.13378575    -0.33200
S220        S  0.30551035  0.24711342  0.08340923    -0.33200
H221        H  0.33067423  0.25968403  0.11126810     0.28200
H222        H  0.16169580  0.16089378  0.15556351     0.28200
H223        H  0.13875111  0.19527050  0.07458651     0.18800
H224        H  0.28585494  0.23910447  0.14389291     0.18800
C225        C  0.03111134  0.38365518  0.48344343    -0.07000
C226        C  0.06697194  0.37496776  0.46659656    -0.18200
C227        C  0.07481041  0.34363651  0.46084713     0.10200
C228        C  0.04598229  0.31995917  0.47206424    -0.07000
C229        C  0.01237862  0.32835522  0.49064820    -0.18200
C230        C  0.50531611  0.36012293  0.49680459     0.10200
S231        S  0.12180572  0.33570040  0.43861436    -0.33200
S232        S  0.46343371  0.37021745  0.02179677    -0.33200
H233        H  0.45176195  0.33936398  0.02978318     0.28200
H234        H  0.13309606  0.30577168  0.45097533     0.28200
H235        H  0.08835252  0.39284091  0.45703419     0.18800
H236        H  0.49146036  0.31037128  0.99993937     0.18800
C237        C  0.48695751  0.47873170  0.39508451    -0.07000
C238        C  0.02501871  0.48872750  0.38045268    -0.18200
C239        C  0.01850892  0.49188841  0.34851571     0.10200
C240        C  0.47175776  0.48558481  0.32998448    -0.07000
C241        C  0.43389883  0.47378827  0.34470861    -0.18200
C242        C  0.44069475  0.47009858  0.37656341     0.10200
S243        S  0.07164919  0.50438340  0.33238251    -0.33200
S244        S  0.38798750  0.95481579  0.39227050    -0.33200
H245        H  0.35370754  0.45186532  0.36535734     0.28200
H246        H  0.10763378  0.50349281  0.35943479     0.28200
H247        H  0.06083820  0.49454667  0.39429482     0.18800
H248        H  0.39725786  0.96795092  0.33158679     0.18800
C249        C  0.02777804  0.47309093  0.07987578    -0.07000
C250        C  0.07232871  0.48410523  0.09800139    -0.18200
C251        C  0.07988833  0.48334699  0.13008924     0.10200
C252        C  0.04369599  0.46847517  0.14481748    -0.07000
C253        C  0.99742374  0.46071656  0.12663819    -0.18200
C254        C  0.98907128  0.46252516  0.09486355     0.10200
S255        S  0.13168166  0.00674855  0.14983934    -0.33200
S256        S  0.42840659  0.44977225  0.07529986    -0.33200
H257        H  0.41670597  0.47955922  0.06245432     0.28200
H258        H  0.10726940  0.01612183  0.17328002     0.28200
H259        H  0.10105124  0.99499687  0.08732716     0.18800
H260        H  0.46733240  0.45189115  0.13722143     0.18800
C261        C  0.22983891  0.37315857  0.49055327    -0.07000
C262        C  0.19462089  0.36360548  0.50801067    -0.18200
C263        C  0.18613369  0.33236319  0.01435133     0.10200
C264        C  0.21380094  0.30924072  0.50247332    -0.07000
C265        C  0.24848476  0.31845724  0.48441540    -0.18200
C266        C  0.25698773  0.35023902  0.47839852     0.10200
S267        S  0.14000566  0.32412735  0.03757441    -0.33200
S268        S  0.30162038  0.35978065  0.45459331    -0.33200
H269        H  0.27475308  0.38471552  0.43918107     0.28200
H270        H  0.12407248  0.29561201  0.02363458     0.28200
H271        H  0.17273351  0.38076915  0.51697654     0.18800
H272        H  0.26943264  0.30083047  0.47528510     0.18800
C273        C  0.27328514  0.46362041  0.07802475    -0.07000
C274        C  0.31545188  0.97988904  0.09271252    -0.18200
C275        C  0.32687678  0.98223834  0.12458445     0.10200
C276        C  0.29510861  0.46752533  0.14301734    -0.07000
C277        C  0.25404801  0.44967010  0.12763811    -0.18200
C278        C  0.24333654  0.44731980  0.09569464     0.10200
S279        S  0.38031583  0.00654926  0.14044302    -0.33200
S280        S  0.19117159  0.42291567  0.07884502    -0.33200
H281        H  0.21557496  0.41118603  0.05642743     0.28200
H282        H  0.40083209  0.00994007  0.11389227     0.28200
H283        H  0.33820264  0.99245374  0.07903244     0.18800
H284        H  0.22812696  0.43840652  0.13988351     0.18800
C285        C  0.22058143  0.46346686  0.39436139    -0.07000
C286        C  0.24524559  0.48453707  0.37775301    -0.18200
C287        C  0.23963897  0.48253513  0.34584894     0.10200
C288        C  0.21377055  0.45629892  0.33038969    -0.07000
C289        C  0.18590373  0.43693163  0.34710371    -0.18200
C290        C  0.18886423  0.44022781  0.37856368     0.10200
S291        S  0.25802992  0.01731955  0.32681282    -0.33200
S292        S  0.15271950  0.41317864  0.39727652    -0.33200
H293        H  0.19017886  0.40825723  0.42296699     0.28200
H294        H  0.21695485  0.01582815  0.30251703     0.28200
H295        H  0.26663429  0.00402146  0.38940514     0.18800
H296        H  0.16235199  0.41828638  0.33558287     0.18800
C297        C  0.46899886  0.22308197  0.14099387    -0.07000
C298        C  0.50708276  0.23366838  0.12613040    -0.18200
C299        C  0.50311211  0.23138445  0.09422428     0.10200
C300        C  0.45835517  0.21938169  0.07584022    -0.07000
C301        C  0.42120908  0.20789760  0.09129959    -0.18200
C302        C  0.42545698  0.20997964  0.12296112     0.10200
S303        S  0.05790955  0.24160115  0.07880425    -0.33200
S304        S  0.37540987  0.19250024  0.13867766    -0.33200
H305        H  0.36429114  0.22071597  0.15147086     0.28200
H306        H  0.08523015  0.25671306  0.10474107     0.28200
H307        H  0.04112659  0.24302130  0.13981100     0.18800
H308        H  0.38884810  0.19559517  0.07891420     0.18800
C309        C  0.47889867  0.13374916  0.50402033    -0.07000
C310        C  0.46633220  0.11098144  0.02464190    -0.18200
C311        C  0.47541872  0.07931278  0.02141065     0.10200
C312        C  0.49213934  0.06902179  0.49534294    -0.07000
C313        C  0.50561224  0.09130693  0.47483906    -0.18200
C314        C  0.50053894  0.12354862  0.47936181     0.10200
S315        S  0.46894052  0.05325535  0.05258750    -0.33200
S316        S  0.52580784  0.15009832  0.45429391    -0.33200
H317        H  0.54370021  0.17207386  0.47727298     0.28200
H318        H  0.51402119  0.03834155  0.05237937     0.28200
H319        H  0.45019033  0.11781414  0.04393259     0.18800
H320        H  0.52122662  0.08358303  0.45561449     0.18800
C321        C  0.27250266  0.20379467  0.39052784    -0.07000
C322        C  0.23337078  0.18615388  0.37289280    -0.18200
C323        C  0.22468393  0.18640882  0.34104299     0.10200
C324        C  0.25365201  0.20609937  0.32547680    -0.07000
C325        C  0.28856276  0.22667027  0.34274768    -0.18200
C326        C  0.29666163  0.22669162  0.37490037     0.10200
S327        S  0.17919905  0.15877687  0.32191783    -0.33200
S328        S  0.33321297  0.25876620  0.39386490    -0.33200
H329        H  0.30689585  0.26092656  0.41791483     0.28200
H330        H  0.14802158  0.18228066  0.30739415     0.28200
H331        H  0.20950976  0.17121950  0.38388309     0.18800
H332        H  0.30839402  0.24367110  0.33107204     0.18800
C333        C  0.26866999  0.12462825  0.47370625    -0.07000
C334        C  0.30489635  0.10889599  0.99468019    -0.18200
C335        C  0.29910545  0.07699936  0.00093277     0.10200
C336        C  0.25709810  0.06029448  0.48496338    -0.07000
C337        C  0.21928281  0.07654822  0.46593284    -0.18200
C338        C  0.22406651  0.10861794  0.46071153     0.10200
S339        S  0.34498794  0.05931734  0.02989764    -0.33200
S340        S  0.17210196  0.12765980  0.43713059    -0.33200
H341        H  0.18128003  0.15709039  0.45124904     0.28200
H342        H  0.31173022  0.03816546  0.04033094     0.28200
H343        H  0.33852014  0.12131585  0.00533198     0.18800
H344        H  0.18630393  0.06407089  0.45439614     0.18800
C345        C  0.28479595  0.19709671  0.92527466     0.85600
C346        C  0.25282119  0.21603224  0.94321744    -0.54700
C347        C  0.25998706  0.20938988  0.97392334     0.08500
C348        C  0.29894744  0.18393215  0.98374403     0.19500
C349        C  0.33905473  0.20226890  0.94215987    -0.55400
C350        C  0.34620640  0.19571099  0.97288222     0.08600
C351        C  0.27468866  0.16265733  0.93288467    -0.54900
C352        C  0.28011274  0.15605914  0.96313711     0.09200
H353        H  0.22591600  0.23251814  0.93182483     0.13700
H354        H  0.30624076  0.17739296  0.50810846    -0.00600
H355        H  0.36930897  0.20953790  0.93097518     0.14000
H356        H  0.26499541  0.14438704  0.91588282     0.13800
C357        C  0.45335019  0.21098836  0.54168634     0.85600
C358        C  0.47900342  0.23250238  0.52133382    -0.54700
C359        C  0.47667022  0.22163030  0.99233850     0.08500
C360        C  0.44519939  0.19108365  0.98546637     0.19500
C361        C  0.39948541  0.20894209  0.52343269    -0.55400
C362        C  0.39497680  0.19865919  0.99406841     0.08600
C363        C  0.47433074  0.17846237  0.53895445    -0.54900
C364        C  0.46933889  0.16736409  0.50986825     0.09200
H365        H  0.99489800  0.25514644  0.52862816     0.13700
H366        H  0.44113571  0.18217216  0.96185648    -0.00600
H367        H  0.36741628  0.21631354  0.53236847     0.14000
H368        H  0.49024089  0.16475249  0.55895851     0.13800
O369        O  0.19788465  0.42417644  0.98569699    -0.75300
O370        O  0.21078753  0.01279374  0.98567508    -0.75400
O371        O  0.19215885  0.46832798  0.94174951    -0.75400
O372        O  0.21747337  0.46774739  0.52971916    -0.75500
O373        O  0.29850907  0.46383194  0.53004750    -0.75400
O374        O  0.27348446  0.46481181  0.94260481    -0.75400
O375        O  0.29201826  0.00914055  0.98645646    -0.75400
O376        O  0.27886350  0.41950539  0.98626893    -0.75400
Ni377      Ni  0.20168691  0.46848401  0.98566298     1.25400
Ni378      Ni  0.28861513  0.46424004  0.98630414     1.25400
C379        C  0.23592494  0.40718667  0.98660049     0.86800
C380        C  0.25344829  0.02566454  0.98619599     0.86800
C381        C  0.22880250  0.46600975  0.92782647     0.86800
C382        C  0.26220608  0.46493971  0.54430240     0.87000
O383        O  0.45946953  0.47441565  0.94299719    -0.75300
O384        O  0.47893817  0.47005870  0.52951479    -0.75400
O385        O  0.46100575  0.01676304  0.98859032    -0.75400
O386        O  0.47951225  0.42781483  0.98493879    -0.75500
O387        O  0.05973469  0.43671794  0.98814747    -0.75400
O388        O  0.04237295  0.02521045  0.98997510    -0.75400
O389        O  0.05950500  0.47916163  0.53307719    -0.75400
O390        O  0.03938510  0.48201194  0.94483183    -0.75400
Ni391      Ni  0.46706747  0.47194190  0.98632169     1.25400
Ni392      Ni  0.05308121  0.48109487  0.98904788     1.25400
C393        C  0.49607916  0.47827412  0.92930541     0.86800
C394        C  0.02174703  0.47391265  0.54583540     0.86800
C395        C  0.49876935  0.03542798  0.99053200     0.86800
C396        C  0.02249668  0.41775314  0.98612908     0.87000
C397        C  0.19979863  0.23093777  0.54267605     0.85600
C398        C  0.21137595  0.26581428  0.53909938    -0.54700
C399        C  0.20815524  0.27578515  0.50983657     0.08500
C400        C  0.19257470  0.24993676  0.98601543     0.19500
C401        C  0.14718109  0.22675342  0.52280396    -0.55400
C402        C  0.14335144  0.23679655  0.99316318     0.08600
C403        C  0.23396635  0.21391468  0.52494101    -0.54900
C404        C  0.23050382  0.22365201  0.99522560     0.09200
H405        H  0.22030264  0.28173510  0.55833790     0.13700
H406        H  0.18902311  0.25897903  0.96233504    -0.00600
H407        H  0.11452116  0.21883585  0.53128305     0.14000
H408        H  0.25786174  0.19556207  0.53567804     0.13800
C409        C  0.03645598  0.24595846  0.92342248     0.85600
C410        C  0.03787507  0.28087791  0.93101731    -0.54700
C411        C  0.04486202  0.28740879  0.96130879     0.08500
C412        C  0.05184418  0.25809922  0.98186388     0.19500
C413        C  0.08741376  0.23492116  0.94132376    -0.55400
C414        C  0.09513606  0.24115600  0.97201807     0.08600
C415        C  0.99799595  0.23074692  0.94031674    -0.54900
C416        C  0.00589724  0.23685888  0.97091024     0.09200
H417        H  0.03487958  0.29927711  0.91385902     0.13700
H418        H  0.05934240  0.26345828  0.50648527    -0.00600
H419        H  0.11594946  0.22477533  0.93080351     0.14000
H420        H  0.46748235  0.21599165  0.92879406     0.13800
C421        C  0.05009535  0.45830588  0.67853364     0.85600
C422        C  0.02021584  0.47851805  0.69686392    -0.54700
C423        C  0.02121340  0.46871667  0.72641672     0.08500
C424        C  0.05385588  0.43994194  0.73506446     0.19500
C425        C  0.10295202  0.45723112  0.69749353    -0.55400
C426        C  0.10488551  0.44819261  0.72705225     0.08600
C427        C  0.03078834  0.42452384  0.68203883    -0.54900
C428        C  0.03131359  0.41515458  0.71146583     0.09200
H429        H  0.49888534  0.49839113  0.68651135     0.13700
H430        H  0.05647747  0.43171882  0.75888139    -0.00600
H431        H  0.13654174  0.46061729  0.68843237     0.14000
H432        H  0.01918789  0.40898991  0.66273928     0.13800
C433        C  0.21100880  0.44758603  0.79664469     0.85600
C434        C  0.24762278  0.46312123  0.77815025    -0.54700
C435        C  0.24027797  0.45462865  0.74797767     0.08500
C436        C  0.19850245  0.42934104  0.73972402     0.19500
C437        C  0.15912012  0.45354038  0.77800730    -0.55400
C438        C  0.15242516  0.44408174  0.74849702     0.08600
C439        C  0.21912332  0.41235524  0.79273921    -0.54900
C440        C  0.21231772  0.40246404  0.76313809     0.09200
H441        H  0.27879532  0.47772622  0.78817852     0.13700
H442        H  0.19140581  0.42105852  0.71579999    -0.00600
H443        H  0.13001910  0.46451923  0.78746098     0.14000
H444        H  0.22898047  0.39639162  0.81197225     0.13800
O445        O  0.20288771  0.20346398  0.77534274    -0.75300
O446        O  0.18381052  0.21017679  0.68794659    -0.75400
O447        O  0.20094415  0.16230388  0.72878048    -0.75400
O448        O  0.18563767  0.25126718  0.73508787    -0.75500
O449        O  0.26704217  0.25874452  0.73769964    -0.75400
O450        O  0.28254179  0.17014833  0.73243253    -0.75400
O451        O  0.26533342  0.21710414  0.69154275    -0.75400
O452        O  0.28418427  0.21163804  0.77895732    -0.75400
Ni453      Ni  0.19037047  0.20655837  0.73164197     1.25400
Ni454      Ni  0.27762291  0.21466488  0.73528306     1.25400
C455        C  0.24641018  0.20684666  0.79162093     0.86800
C456        C  0.22174778  0.21387427  0.67520040     0.86800
C457        C  0.24439097  0.15175433  0.72903078     0.86800
C458        C  0.22403088  0.26952120  0.73824624     0.87000
O459        O  0.04098197  0.22493013  0.77888730    -0.75300
O460        O  0.02186154  0.22475221  0.69091580    -0.75400
O461        O  0.03469071  0.26978571  0.73489280    -0.75400
O462        O  0.02908670  0.18014146  0.73541815    -0.75500
O463        O  0.44769887  0.18198058  0.73407773    -0.75400
O464        O  0.45190604  0.27137823  0.72998823    -0.75400
O465        O  0.44007938  0.22485254  0.68845552    -0.75400
O466        O  0.45892522  0.22845994  0.77546251    -0.75400
Ni467      Ni  0.03467727  0.22490579  0.73509449     1.25400
Ni468      Ni  0.44680477  0.22667239  0.73188684     1.25400
C469        C  0.00283937  0.22702178  0.79150719     0.86800
C470        C  0.47739079  0.22428895  0.67510112     0.86800
C471        C  0.99454851  0.28521493  0.73227845     0.86800
C472        C  0.48730830  0.16634696  0.73504058     0.87000
C473        C  0.29814749  0.47644441  0.67685455     0.85600
C474        C  0.27957438  0.00990790  0.67763099    -0.54700
C475        C  0.28395264  0.02223689  0.70604359     0.08500
C476        C  0.30360619  0.99867335  0.73178554     0.19500
C477        C  0.35081173  0.47619101  0.69664383    -0.55400
C478        C  0.35417099  0.48866082  0.72502048     0.08600
C479        C  0.26647222  0.45786320  0.69643242    -0.54900
C480        C  0.26922946  0.46907050  0.72553113     0.09200
H481        H  0.26336976  0.02252113  0.65701180     0.13700
H482        H  0.30695950  0.00884561  0.75487987    -0.00600
H483        H  0.38284088  0.46685097  0.68900206     0.14000
H484        H  0.24431565  0.43750809  0.68825024     0.13800
C485        C  0.46133071  0.49268321  0.79519854     0.85600
C486        C  0.47117929  0.02730865  0.78866181    -0.54700
C487        C  0.46599739  0.03481933  0.75846702     0.08500
C488        C  0.44959047  0.00712081  0.73684789     0.19500
C489        C  0.40818970  0.48626313  0.77675346    -0.55400
C490        C  0.40235535  0.49347819  0.74646578     0.08600
C491        C  0.49483269  0.47456924  0.77755822    -0.54900
C492        C  0.48999660  0.48242309  0.74713994     0.09200
H493        H  0.48200703  0.04453603  0.80662123     0.13700
H494        H  0.44374273  0.01397050  0.71240218    -0.00600
H495        H  0.37713239  0.47639663  0.78564307     0.14000
H496        H  0.02067132  0.45769440  0.78909651     0.13800
C497        C  0.48445887  0.13171541  0.73657142    -0.07000
C498        C  0.52514183  0.11520079  0.75241810    -0.18200
C499        C  0.52133489  0.08294719  0.75772317     0.10200
C500        C  0.47532376  0.06702902  0.74816481    -0.07000
C501        C  0.43577991  0.08307362  0.73075581    -0.18200
C502        C  0.44049320  0.11492087  0.72413893     0.10200
S503        S  0.07654951  0.06337512  0.77622031    -0.33200
S504        S  0.39032576  0.13291850  0.69865811    -0.33200
H505        H  0.42270786  0.14911123  0.68266808     0.28200
H506        H  0.56379191  0.03425817  0.76269319     0.28200
H507        H  0.05966410  0.12741846  0.76111075     0.18800
H508        H  0.40074727  0.07089958  0.72293133     0.18800
C509        C  0.25109707  0.11828599  0.72324062    -0.07000
C510        C  0.27215011  0.11110908  0.69798312    -0.18200
C511        C  0.28408869  0.08046425  0.69206203     0.10200
C512        C  0.27244791  0.05555209  0.71112539    -0.07000
C513        C  0.24916830  0.06268964  0.73569633    -0.18200
C514        C  0.23901715  0.09371659  0.74215030     0.10200
S515        S  0.31710838  0.07580012  0.66100777    -0.33200
S516        S  0.21249039  0.10048175  0.77538247    -0.33200
H517        H  0.23977757  0.12837763  0.78347557     0.28200
H518        H  0.35096720  0.05469314  0.67726533     0.28200
H519        H  0.28082476  0.12987754  0.68313820     0.18800
H520        H  0.23927035  0.04403826  0.75024072     0.18800
C521        C  0.21480537  0.36850723  0.75539576    -0.07000
C522        C  0.19034774  0.34622948  0.77119809    -0.18200
C523        C  0.19398120  0.31398309  0.76651869     0.10200
C524        C  0.21927024  0.30336718  0.74386881    -0.07000
C525        C  0.24362220  0.32538787  0.72803414    -0.18200
C526        C  0.24296044  0.35752772  0.73418849     0.10200
S527        S  0.17108511  0.28729337  0.79251078    -0.33200
S528        S  0.28333867  0.38245914  0.71668428    -0.33200
H529        H  0.29872235  0.40116686  0.74269868     0.28200
H530        H  0.21321588  0.26847886  0.79698002     0.28200
H531        H  0.16995729  0.35393285  0.78829843     0.18800
H532        H  0.26504056  0.31736536  0.71158137     0.18800
C533        C  0.01495349  0.38334500  0.71965186    -0.07000
C534        C  0.04268477  0.36811908  0.74515487    -0.18200
C535        C  0.03237682  0.33694999  0.75178601     0.10200
C536        C  0.99727049  0.31958631  0.73096785    -0.07000
C537        C  0.46633348  0.33543922  0.70694603    -0.18200
C538        C  0.47360508  0.36742703  0.70181995     0.10200
S539        S  0.06226207  0.32133502  0.78812754    -0.33200
S540        S  0.42776235  0.38636738  0.67343019    -0.33200
H541        H  0.43255716  0.41564316  0.68804852     0.28200
H542        H  0.02550648  0.29845959  0.79047764     0.28200
H543        H  0.07297066  0.38021895  0.75993154     0.18800
H544        H  0.43715515  0.32262487  0.69189465     0.18800
C545        C  0.00892563  0.22929352  0.82499318    -0.07000
C546        C  0.98357770  0.25280027  0.83678929    -0.18200
C547        C  0.98863117  0.25725579  0.86821737     0.10200
C548        C  0.02423742  0.23966971  0.88892337    -0.07000
C549        C  0.04662222  0.21446733  0.87682610    -0.18200
C550        C  0.03795746  0.20857869  0.84533593     0.10200
S551        S  0.44700621  0.28539331  0.87910502    -0.33200
S552        S  0.06025780  0.17256683  0.83284607    -0.33200
H553        H  0.02198482  0.16839628  0.80724200     0.28200
H554        H  0.94086466  0.27060074  0.90622847     0.28200
H555        H  0.45871655  0.26762014  0.82134044     0.18800
H556        H  0.06928243  0.19825300  0.89191169     0.18800
C557        C  0.20788693  0.22187508  0.57675707    -0.07000
C558        C  0.17103419  0.20561965  0.58924437    -0.18200
C559        C  0.17514401  0.20142676  0.62094023     0.10200
C560        C  0.21611757  0.21482797  0.64122394    -0.07000
C561        C  0.25427812  0.22919364  0.62874242    -0.18200
C562        C  0.25197658  0.23146923  0.59712265     0.10200
S563        S  0.12779230  0.17765661  0.63368531    -0.33200
S564        S  0.30599626  0.24697693  0.58346951    -0.33200
H565        H  0.33141508  0.25924080  0.61140407     0.28200
H566        H  0.16159744  0.16107436  0.65553165     0.28200
H567        H  0.13909679  0.19529395  0.57452892     0.18800
H568        H  0.28618009  0.23901375  0.64394369     0.18800
C569        C  0.03100245  0.38384468  0.98349815    -0.07000
C570        C  0.06681096  0.37511258  0.96663467    -0.18200
C571        C  0.07458589  0.34377233  0.96090660     0.10200
C572        C  0.04573908  0.32013004  0.97216056    -0.07000
C573        C  0.01219756  0.32856917  0.99077023    -0.18200
C574        C  0.50573059  0.36020528  0.99697406     0.10200
S575        S  0.12150708  0.33578376  0.93863275    -0.33200
S576        S  0.46254236  0.36997372  0.52137286    -0.33200
H577        H  0.45047548  0.33906997  0.52897943     0.28200
H578        H  0.13274080  0.30584293  0.95097961     0.28200
H579        H  0.08819959  0.39295741  0.95704082     0.18800
H580        H  0.49121627  0.31025333  0.49961524     0.18800
C581        C  0.48689010  0.47899238  0.89508469    -0.07000
C582        C  0.02513417  0.48820909  0.88041308    -0.18200
C583        C  0.01859055  0.49128863  0.84847357     0.10200
C584        C  0.47150468  0.48576578  0.82995926    -0.07000
C585        C  0.43319792  0.47503175  0.84483541    -0.18200
C586        C  0.44003141  0.47140219  0.87667905     0.10200
S587        S  0.07207440  0.50309191  0.83240893    -0.33200
S588        S  0.38710742  0.95712304  0.89259643    -0.33200
H589        H  0.35140100  0.45685339  0.86586378     0.28200
H590        H  0.10851839  0.49533777  0.85795034     0.28200
H591        H  0.06125583  0.49355775  0.89413619     0.18800
H592        H  0.39634356  0.96972891  0.83193473     0.18800
C593        C  0.02727998  0.47292157  0.57979543    -0.07000
C594        C  0.07171421  0.48404768  0.59797322    -0.18200
C595        C  0.07918464  0.48324828  0.63005856     0.10200
C596        C  0.04310088  0.46817923  0.64472495    -0.07000
C597        C  0.99690445  0.46031730  0.62650480    -0.18200
C598        C  0.98858216  0.46222550  0.59473123     0.10200
S599        S  0.13134433  0.00666188  0.64984144    -0.33200
S600        S  0.42812960  0.44930228  0.57525026    -0.33200
H601        H  0.41596077  0.47902048  0.56238503     0.28200
H602        H  0.10685897  0.01596154  0.67327505     0.28200
H603        H  0.10085643  0.99483220  0.58730329     0.18800
H604        H  0.46701180  0.45153681  0.63717821     0.18800
C605        C  0.22920851  0.37315703  0.99035112    -0.07000
C606        C  0.19408869  0.36365252  0.00789563    -0.18200
C607        C  0.18661448  0.33230240  0.51437968     0.10200
C608        C  0.21329825  0.30927398  0.00245994    -0.07000
C609        C  0.24786115  0.31844781  0.98430657    -0.18200
C610        C  0.25627783  0.35020937  0.97817921     0.10200
S611        S  0.14042137  0.32400761  0.53754314    -0.33200
S612        S  0.30065831  0.35968523  0.95418637    -0.33200
H613        H  0.27375322  0.38464271  0.93884650     0.28200
H614        H  0.12448671  0.29553244  0.52351851     0.28200
H615        H  0.17225466  0.38084580  0.01686877     0.18800
H616        H  0.26876035  0.30079985  0.97516686     0.18800
C617        C  0.27317650  0.46377516  0.57811870    -0.07000
C618        C  0.31493434  0.98015090  0.59281562    -0.18200
C619        C  0.32640996  0.98239342  0.62468859     0.10200
C620        C  0.29500017  0.46753722  0.64310858    -0.07000
C621        C  0.25377527  0.44985883  0.62768989    -0.18200
C622        C  0.24300723  0.44761720  0.59574774     0.10200
S623        S  0.37991836  0.00663175  0.64056481    -0.33200
S624        S  0.19037347  0.42360750  0.57886612    -0.33200
H625        H  0.21447205  0.41171434  0.55638503     0.28200
H626        H  0.40108499  0.00926647  0.61420050     0.28200
H627        H  0.33772956  0.99273714  0.57917283     0.18800
H628        H  0.22772116  0.43870787  0.63990782     0.18800
C629        C  0.21995679  0.46362166  0.89425807    -0.07000
C630        C  0.24459637  0.48470183  0.87764862    -0.18200
C631        C  0.23901618  0.48268376  0.84575021     0.10200
C632        C  0.21316712  0.45643401  0.83030322    -0.07000
C633        C  0.18527949  0.43707869  0.84701207    -0.18200
C634        C  0.18824090  0.44037969  0.87846865     0.10200
S635        S  0.25716909  0.01737942  0.82666245    -0.33200
S636        S  0.15208143  0.41334508  0.89718399    -0.33200
H637        H  0.18953607  0.40841422  0.92287127     0.28200
H638        H  0.21617580  0.01577250  0.80232109     0.28200
H639        H  0.26574282  0.00419940  0.88927627     0.18800
H640        H  0.16173516  0.41842871  0.83549362     0.18800
C641        C  0.46925409  0.22294901  0.64100369    -0.07000
C642        C  0.50722555  0.23379460  0.62616730    -0.18200
C643        C  0.50334855  0.23158209  0.59425233     0.10200
C644        C  0.45875779  0.21937545  0.57582955    -0.07000
C645        C  0.42174423  0.20763562  0.59126775    -0.18200
C646        C  0.42590637  0.20965766  0.62293139     0.10200
S647        S  0.05805678  0.24189837  0.57886626    -0.33200
S648        S  0.37603056  0.19187517  0.63859015    -0.33200
H649        H  0.36446492  0.21996678  0.65141495     0.28200
H650        H  0.08663959  0.25529852  0.60535916     0.28200
H651        H  0.04116549  0.24305157  0.63992101     0.18800
H652        H  0.38954065  0.19520674  0.57884176     0.18800
C653        C  0.47906051  0.13377686  0.00416902    -0.07000
C654        C  0.46598114  0.11101581  0.52449514    -0.18200
C655        C  0.47471679  0.07929784  0.52123871     0.10200
C656        C  0.49292467  0.06912895  0.99551336    -0.07000
C657        C  0.50632955  0.09148454  0.97505000    -0.18200
C658        C  0.50098721  0.12369863  0.97958749     0.10200
S659        S  0.46789956  0.05328395  0.55238335    -0.33200
S660        S  0.52633377  0.15039393  0.95468319    -0.33200
H661        H  0.54397588  0.17230803  0.97776786     0.28200
H662        H  0.51290085  0.03824756  0.55226043     0.28200
H663        H  0.44995749  0.11793214  0.54380628     0.18800
H664        H  0.52208041  0.08384339  0.95585019     0.18800
C665        C  0.27204321  0.20360560  0.89058479    -0.07000
C666        C  0.23296896  0.18594972  0.87290494    -0.18200
C667        C  0.22414929  0.18637264  0.84104181     0.10200
C668        C  0.25307863  0.20612527  0.82550487    -0.07000
C669        C  0.28799922  0.22665317  0.84283457    -0.18200
C670        C  0.29610563  0.22659318  0.87499446     0.10200
S671        S  0.17838258  0.15896335  0.82182950    -0.33200
S672        S  0.33262563  0.25865098  0.89402637    -0.33200
H673        H  0.30624028  0.26079224  0.91804417     0.28200
H674        H  0.14740276  0.18264526  0.80746858     0.28200
H675        H  0.20915347  0.17094828  0.88386130     0.18800
H676        H  0.30781828  0.24369731  0.83120029     0.18800
C677        C  0.26854089  0.12451041  0.97396010    -0.07000
C678        C  0.30466477  0.10901807  0.49467027    -0.18200
C679        C  0.29860163  0.07716949  0.50098908     0.10200
C680        C  0.25743740  0.06010866  0.98511719    -0.07000
C681        C  0.21932349  0.07636701  0.96634795    -0.18200
C682        C  0.22389730  0.10845236  0.96116651     0.10200
S683        S  0.34388633  0.05953030  0.53034055    -0.33200
S684        S  0.17164315  0.12744749  0.93783467    -0.33200
H685        H  0.18092704  0.15688400  0.95192747     0.28200
H686        H  0.31024559  0.03847093  0.54052750     0.28200
H687        H  0.33821330  0.12140604  0.50549415     0.18800
H688        H  0.18625169  0.06387796  0.95496049     0.18800
C689        C  0.28516375  0.69717712  0.42522968     0.85600
C690        C  0.25314501  0.71606852  0.44317878    -0.54700
C691        C  0.26031012  0.70941491  0.47388267     0.08500
C692        C  0.29927200  0.68396301  0.48368976     0.19500
C693        C  0.33939928  0.70238089  0.44212860    -0.55400
C694        C  0.34653479  0.69578954  0.47284878     0.08600
C695        C  0.27515139  0.66272124  0.43281292    -0.54900
C696        C  0.28045330  0.65609598  0.46305262     0.09200
H697        H  0.22624149  0.73255574  0.43178919     0.13700
H698        H  0.30598078  0.67744200  0.00825146    -0.00600
H699        H  0.36964314  0.70970398  0.43095622     0.14000
H700        H  0.26558387  0.64445732  0.41579361     0.13800
C701        C  0.45305253  0.71088141  0.04171554     0.85600
C702        C  0.47874435  0.73239639  0.02138615    -0.54700
C703        C  0.47700725  0.72166723  0.49230361     0.08500
C704        C  0.44549235  0.69114770  0.48543073     0.19500
C705        C  0.39920828  0.70885558  0.02345233    -0.55400
C706        C  0.39529495  0.69875100  0.49404112     0.08600
C707        C  0.47402261  0.67835546  0.03899724    -0.54900
C708        C  0.46909983  0.66726994  0.00991499     0.09200
H709        H  0.99477111  0.75524254  0.02868648     0.13700
H710        H  0.44141326  0.68223452  0.46181989    -0.00600
H711        H  0.36713832  0.71626781  0.03236155     0.14000
H712        H  0.48995482  0.66465684  0.05900464     0.13800
O713        O  0.19789921  0.92425573  0.48553159    -0.75300
O714        O  0.21077163  0.51282285  0.48563625    -0.75400
O715        O  0.19224914  0.96838564  0.44154770    -0.75400
O716        O  0.21749479  0.96749429  0.02953823    -0.75500
O717        O  0.29846155  0.96353362  0.02964910    -0.75400
O718        O  0.27362787  0.96496159  0.44255070    -0.75400
O719        O  0.29212124  0.50931352  0.48675097    -0.75400
O720        O  0.27893072  0.91967446  0.48623612    -0.75400
Ni721      Ni  0.20155280  0.96857491  0.48545626     1.25400
Ni722      Ni  0.28853726  0.96442148  0.48624849     1.25400
C723        C  0.23600402  0.90730608  0.48650356     0.86800
C724        C  0.25341240  0.52576520  0.48627854     0.86800
C725        C  0.22899129  0.96611247  0.42769894     0.86800
C726        C  0.26228406  0.96462932  0.04401179     0.87000
O727        O  0.45839710  0.97441340  0.44286039    -0.75300
O728        O  0.47947026  0.96998640  0.02956263    -0.75400
O729        O  0.46059106  0.51668178  0.48836666    -0.75400
O730        O  0.47846818  0.92776724  0.48479964    -0.75500
O731        O  0.06032643  0.93661771  0.48824894    -0.75400
O732        O  0.04122468  0.52494673  0.48983490    -0.75400
O733        O  0.06047585  0.97942762  0.03323522    -0.75400
O734        O  0.03996250  0.98189523  0.44490817    -0.75400
Ni735      Ni  0.46611082  0.97191833  0.48623387     1.25400
Ni736      Ni  0.05358363  0.98099738  0.48914029     1.25400
C737        C  0.49506743  0.97822638  0.42919713     0.86800
C738        C  0.02265443  0.97422803  0.04595523     0.86800
C739        C  0.49832471  0.53538476  0.49038073     0.86800
C740        C  0.02311040  0.91763249  0.48621339     0.87000
C741        C  0.19932826  0.73096367  0.04266147     0.85600
C742        C  0.21080723  0.76585547  0.03907145    -0.54700
C743        C  0.20760842  0.77580838  0.00980439     0.08500
C744        C  0.19291368  0.74996433  0.48596204     0.19500
C745        C  0.14673531  0.72672537  0.02276828    -0.55400
C746        C  0.14371909  0.73680454  0.49313239     0.08600
C747        C  0.23356603  0.71396290  0.02496838    -0.54900
C748        C  0.23087317  0.72370137  0.49520012     0.09200
H749        H  0.21968320  0.78178663  0.05830351     0.13700
H750        H  0.18932273  0.75897503  0.46226944    -0.00600
H751        H  0.11408216  0.71879789  0.03125089     0.14000
H752        H  0.25747024  0.69562558  0.03572936     0.13800
C753        C  0.03676270  0.74577125  0.42338051     0.85600
C754        C  0.03817504  0.78070175  0.43094065    -0.54700
C755        C  0.04517237  0.78727037  0.46122509     0.08500
C756        C  0.05214005  0.75797667  0.48180693     0.19500
C757        C  0.08773207  0.73475402  0.44129274    -0.55400
C758        C  0.09546367  0.74104462  0.47198103     0.08600
C759        C  0.99831438  0.73057638  0.44028439    -0.54900
C760        C  0.00619175  0.73671616  0.47086745     0.09200
H761        H  0.03517081  0.79907773  0.41375858     0.13700
H762        H  0.05911339  0.76362873  0.00645830    -0.00600
H763        H  0.11627882  0.72461075  0.43078054     0.14000
H764        H  0.46791137  0.71593758  0.42875469     0.13800
C765        C  0.05043538  0.95862435  0.17858029     0.85600
C766        C  0.02056669  0.97880492  0.19694756    -0.54700
C767        C  0.02150416  0.96892074  0.22646379     0.08500
C768        C  0.05410058  0.94010001  0.23504720     0.19500
C769        C  0.10326275  0.95746595  0.19753885    -0.55400
C770        C  0.10516958  0.94833466  0.22705887     0.08600
C771        C  0.03104769  0.92482999  0.18198271    -0.54900
C772        C  0.03150502  0.91536984  0.21138253     0.09200
H773        H  0.49979941  0.99847377  0.18653178     0.13700
H774        H  0.05669523  0.93183109  0.25884612    -0.00600
H775        H  0.13686485  0.96084410  0.18849174     0.14000
H776        H  0.01947131  0.90935915  0.16263323     0.13800
C777        C  0.21148393  0.94764983  0.29652390     0.85600
C778        C  0.24799658  0.96321062  0.27796392    -0.54700
C779        C  0.24057248  0.95469735  0.24778601     0.08500
C780        C  0.19877833  0.92940621  0.23959592     0.19500
C781        C  0.15954594  0.95359308  0.27795964    -0.55400
C782        C  0.15273843  0.94413740  0.24845152     0.08600
C783        C  0.21960965  0.91241935  0.29260073    -0.54900
C784        C  0.21269029  0.90253048  0.26299715     0.09200
H785        H  0.27914261  0.97785690  0.28795637     0.13700
H786        H  0.19160411  0.92112238  0.21567052    -0.00600
H787        H  0.13049748  0.96458329  0.28745735     0.14000
H788        H  0.22951920  0.89644793  0.31182265     0.13800
O789        O  0.20305312  0.70354278  0.27533430    -0.75300
O790        O  0.18388764  0.70997895  0.18794548    -0.75400
O791        O  0.20129813  0.66222035  0.22891931    -0.75400
O792        O  0.18569985  0.75124528  0.23494929    -0.75500
O793        O  0.26708750  0.75876927  0.23754946    -0.75400
O794        O  0.28285509  0.67018594  0.23250345    -0.75400
O795        O  0.26538112  0.71702354  0.19148222    -0.75400
O796        O  0.28433430  0.71176782  0.27892128    -0.75400
Ni797      Ni  0.19053286  0.70649821  0.23164039     1.25400
Ni798      Ni  0.27775644  0.71469502  0.23523621     1.25400
C799        C  0.24656982  0.70697314  0.29159585     0.86800
C800        C  0.22177750  0.71371660  0.17517104     0.86800
C801        C  0.24479657  0.65172588  0.22918173     0.86800
C802        C  0.22406562  0.76953502  0.23806928     0.87000
O803        O  0.04099447  0.72503942  0.27880252    -0.75300
O804        O  0.02177010  0.72499477  0.19085006    -0.75400
O805        O  0.03451793  0.76999224  0.23486909    -0.75400
O806        O  0.02909499  0.68030972  0.23530638    -0.75500
O807        O  0.44767510  0.68198448  0.23407256    -0.75400
O808        O  0.45199528  0.77137986  0.22997810    -0.75400
O809        O  0.44007230  0.72485349  0.18846974    -0.75400
O810        O  0.45904079  0.72846918  0.27545786    -0.75400
Ni811      Ni  0.03460988  0.72509467  0.23501851     1.25400
Ni812      Ni  0.44684660  0.72667954  0.23188701     1.25400
C813        C  0.00286773  0.72699144  0.29144948     0.86800
C814        C  0.47735039  0.72425561  0.17509261     0.86800
C815        C  0.99435607  0.78540058  0.23230331     0.86800
C816        C  0.48730524  0.66636679  0.23506037     0.87000
C817        C  0.29837442  0.97639043  0.17656665     0.85600
C818        C  0.28012137  0.50984889  0.17781212    -0.54700
C819        C  0.28458629  0.52217443  0.20623623     0.08500
C820        C  0.30418973  0.49856480  0.23195406     0.19500
C821        C  0.35107474  0.97611642  0.19633316    -0.55400
C822        C  0.35448517  0.98857994  0.22472169     0.08600
C823        C  0.26668277  0.95785451  0.19618550    -0.54900
C824        C  0.26949987  0.96908865  0.22528392     0.09200
H825        H  0.26386017  0.52245871  0.15720546     0.13700
H826        H  0.30760076  0.50870831  0.25506347    -0.00600
H827        H  0.38308050  0.96677958  0.18866162     0.14000
H828        H  0.24449167  0.93749612  0.18804300     0.13800
C829        C  0.46129785  0.99262553  0.29508956     0.85600
C830        C  0.47127448  0.52733518  0.28881789    -0.54700
C831        C  0.46613848  0.53485842  0.25861811     0.08500
C832        C  0.45004566  0.50710617  0.23699746     0.19500
C833        C  0.40831776  0.98606762  0.27650231    -0.55400
C834        C  0.40264842  0.99331982  0.24622176     0.08600
C835        C  0.49518031  0.97470219  0.27755545    -0.54900
C836        C  0.49047811  0.98255084  0.24713749     0.09200
H837        H  0.48185521  0.54458799  0.30677694     0.13700
H838        H  0.44418648  0.51393822  0.21254424    -0.00600
H839        H  0.37718248  0.97624878  0.28534629     0.14000
H840        H  0.02123083  0.95794075  0.28913485     0.13800
C841        C  0.48452253  0.63175938  0.23665398    -0.07000
C842        C  0.52501156  0.61536847  0.25287348    -0.18200
C843        C  0.52127357  0.58312785  0.25818487     0.10200
C844        C  0.47544482  0.56709175  0.24832770    -0.07000
C845        C  0.43610734  0.58302869  0.23055523    -0.18200
C846        C  0.44083841  0.61487475  0.22387878     0.10200
S847        S  0.07600870  0.56379136  0.27739738    -0.33200
S848        S  0.39113532  0.63277471  0.19790765    -0.33200
H849        H  0.42384061  0.64933799  0.18241333     0.28200
H850        H  0.56413206  0.53462183  0.26330955     0.28200
H851        H  0.05924530  0.62771969  0.26189808     0.18800
H852        H  0.40123946  0.57077247  0.22247890     0.18800
C853        C  0.25169455  0.61825084  0.22346319    -0.07000
C854        C  0.27262016  0.61106800  0.19815344    -0.18200
C855        C  0.28456961  0.58042390  0.19221636     0.10200
C856        C  0.27315531  0.55550889  0.21135522    -0.07000
C857        C  0.25017377  0.56266590  0.23604984    -0.18200
C858        C  0.24000155  0.59368980  0.24250584     0.10200
S859        S  0.31722213  0.57577024  0.16099159    -0.33200
S860        S  0.21403316  0.60046593  0.27594054    -0.33200
H861        H  0.24139529  0.62837344  0.28385807     0.28200
H862        H  0.35117966  0.55464405  0.17711227     0.28200
H863        H  0.28113715  0.62983090  0.18325296     0.18800
H864        H  0.24049874  0.54403124  0.25068650     0.18800
C865        C  0.21509431  0.86857024  0.25524106    -0.07000
C866        C  0.19037514  0.84632559  0.27092241    -0.18200
C867        C  0.19386397  0.81406958  0.26620702     0.10200
C868        C  0.21931392  0.80341042  0.24365015    -0.07000
C869        C  0.24397047  0.82541051  0.22795533    -0.18200
C870        C  0.24340810  0.85755731  0.23413796     0.10200
S871        S  0.17059082  0.78740605  0.29206544    -0.33200
S872        S  0.28403092  0.88247060  0.21679084    -0.33200
H873        H  0.29919446  0.90120723  0.24280863     0.28200
H874        H  0.21270344  0.76856697  0.29672780     0.28200
H875        H  0.16988218  0.85406170  0.28795887     0.18800
H876        H  0.26553761  0.81736433  0.21159279     0.18800
C877        C  0.01504608  0.88353294  0.21951078    -0.07000
C878        C  0.04261479  0.86831333  0.24507978    -0.18200
C879        C  0.03218036  0.83717413  0.25177157     0.10200
C880        C  0.99704735  0.81979792  0.23097887    -0.07000
C881        C  0.46642443  0.83543591  0.20692756    -0.18200
C882        C  0.47365448  0.86743500  0.20184639     0.10200
S883        S  0.06204969  0.82160883  0.28814091    -0.33200
S884        S  0.42783535  0.88638695  0.17345117    -0.33200
H885        H  0.43268745  0.91567360  0.18804790     0.28200
H886        H  0.02546297  0.79861012  0.29045680     0.28200
H887        H  0.07291332  0.88038885  0.25986576     0.18800
H888        H  0.43727494  0.82262394  0.19185219     0.18800
C889        C  0.00901073  0.72914936  0.32494340    -0.07000
C890        C  0.98359355  0.75257534  0.33679519    -0.18200
C891        C  0.98874535  0.75701184  0.36822514     0.10200
C892        C  0.02447447  0.73946646  0.38888602    -0.07000
C893        C  0.04693812  0.71432721  0.37674269    -0.18200
C894        C  0.03824924  0.70847920  0.34524077     0.10200
S895        S  0.44719181  0.78526533  0.37914651    -0.33200
S896        S  0.06097391  0.67262077  0.33269535    -0.33200
H897        H  0.02317368  0.66851732  0.30683474     0.28200
H898        H  0.94101450  0.77031948  0.40627311     0.28200
H899        H  0.45869667  0.76748073  0.32136382     0.18800
H900        H  0.06974107  0.69815427  0.39179720     0.18800
C901        C  0.20748990  0.72189845  0.07673571    -0.07000
C902        C  0.17079002  0.70550831  0.08924413    -0.18200
C903        C  0.17508668  0.70120711  0.12094380     0.10200
C904        C  0.21603503  0.71468288  0.14119555    -0.07000
C905        C  0.25401076  0.72921350  0.12868115    -0.18200
C906        C  0.25158522  0.73154984  0.09706239     0.10200
S907        S  0.12806032  0.67718470  0.13373684    -0.33200
S908        S  0.30549690  0.74717374  0.08337113    -0.33200
H909        H  0.33054441  0.75984067  0.11121489     0.28200
H910        H  0.16210266  0.66075522  0.15557679     0.28200
H911        H  0.13887145  0.69514882  0.07453523     0.18800
H912        H  0.28587164  0.73910903  0.14385693     0.18800
C913        C  0.03163913  0.88372540  0.48356385    -0.07000
C914        C  0.06724014  0.87499618  0.46654700    -0.18200
C915        C  0.07490118  0.84365368  0.46074114     0.10200
C916        C  0.04612743  0.82000877  0.47206248    -0.07000
C917        C  0.01282857  0.82844818  0.49083240    -0.18200
C918        C  0.50450246  0.86005022  0.49646450     0.10200
S919        S  0.12164579  0.83566994  0.43833580    -0.33200
S920        S  0.46297014  0.87024476  0.02155307    -0.33200
H921        H  0.45191819  0.83940245  0.02990226     0.28200
H922        H  0.13299468  0.80574908  0.45070105     0.28200
H923        H  0.08854853  0.89284676  0.45689948     0.18800
H924        H  0.49128545  0.81040406  0.99984912     0.18800
C925        C  0.48609838  0.97894034  0.39497838    -0.07000
C926        C  0.02551524  0.98850623  0.38046143    -0.18200
C927        C  0.01885847  0.99166937  0.34852070     0.10200
C928        C  0.47127026  0.98563969  0.32985706    -0.07000
C929        C  0.43310328  0.97426629  0.34455722    -0.18200
C930        C  0.43967524  0.97071116  0.37641879     0.10200
S931        S  0.07200955  0.00405900  0.33238027    -0.33200
S932        S  0.38954603  0.45347511  0.39247034    -0.33200
H933        H  0.35177478  0.95452938  0.36529026     0.28200
H934        H  0.10869292  0.99847736  0.35843793     0.28200
H935        H  0.06146538  0.99423147  0.39421003     0.18800
H936        H  0.39819306  0.46718157  0.33175352     0.18800
C937        C  0.02803988  0.97328813  0.07990265    -0.07000
C938        C  0.07242886  0.98440638  0.09812788    -0.18200
C939        C  0.07977214  0.98362172  0.13020691     0.10200
C940        C  0.04356186  0.96860380  0.14481267    -0.07000
C941        C  0.99738648  0.96081548  0.12654519    -0.18200
C942        C  0.98922184  0.96266313  0.09477647     0.10200
S943        S  0.13207832  0.50634003  0.14956071    -0.33200
S944        S  0.42871396  0.94937422  0.07532792    -0.33200
H945        H  0.41669639  0.97914124  0.06253469     0.28200
H946        H  0.10783926  0.51597036  0.17299015     0.28200
H947        H  0.10091798  0.49460899  0.08711569     0.18800
H948        H  0.46760763  0.95172992  0.13723353     0.18800
C949        C  0.22935910  0.87326265  0.49024324    -0.07000
C950        C  0.19420446  0.86371403  0.50774503    -0.18200
C951        C  0.18618490  0.83237929  0.01430849     0.10200
C952        C  0.21354284  0.80934960  0.50232359    -0.07000
C953        C  0.24812597  0.81856526  0.48419419    -0.18200
C954        C  0.25650892  0.85034285  0.47809145     0.10200
S955        S  0.14026406  0.82422781  0.03769976    -0.33200
S956        S  0.30098104  0.85987851  0.45417438    -0.33200
H957        H  0.27410646  0.88484856  0.43883655     0.28200
H958        H  0.12415961  0.79569815  0.02383721     0.28200
H959        H  0.17230993  0.88088228  0.51670181     0.18800
H960        H  0.26908971  0.80094138  0.47507258     0.18800
C961        C  0.27343782  0.96343849  0.07782903    -0.07000
C962        C  0.31530413  0.48006346  0.09291492    -0.18200
C963        C  0.32678232  0.48235694  0.12478952     0.10200
C964        C  0.29517595  0.96743506  0.14281376    -0.07000
C965        C  0.25413264  0.94956378  0.12744378    -0.18200
C966        C  0.24345507  0.94717752  0.09550406     0.10200
S967        S  0.38028320  0.50660965  0.14066400    -0.33200
S968        S  0.19127320  0.92278888  0.07865978    -0.33200
H969        H  0.21576356  0.91099142  0.05631531     0.28200
H970        H  0.40064983  0.51015904  0.11407219     0.28200
H971        H  0.33804900  0.49264015  0.07923859     0.18800
H972        H  0.22819609  0.93832409  0.13969142     0.18800
C973        C  0.22030781  0.96369912  0.39413395    -0.07000
C974        C  0.24499942  0.98477365  0.37754125    -0.18200
C975        C  0.23947710  0.98274531  0.34564156     0.10200
C976        C  0.21369320  0.95647712  0.33019319    -0.07000
C977        C  0.18579936  0.93711248  0.34688949    -0.18200
C978        C  0.18865264  0.94044085  0.37833049     0.10200
S979        S  0.25820242  0.51711951  0.32704000    -0.33200
S980        S  0.15241497  0.91342309  0.39701047    -0.33200
H981        H  0.18982377  0.90847876  0.42271955     0.28200
H982        H  0.21711023  0.51566204  0.30275436     0.28200
H983        H  0.26691837  0.50377353  0.38961226     0.18800
H984        H  0.16229050  0.91844998  0.33536666     0.18800
C985        C  0.46914933  0.72289957  0.14100437    -0.07000
C986        C  0.50725261  0.73347801  0.12615485    -0.18200
C987        C  0.50326563  0.73126355  0.09424390     0.10200
C988        C  0.45850544  0.71928498  0.07584299    -0.07000
C989        C  0.42133631  0.70780313  0.09128763    -0.18200
C990        C  0.42557859  0.70985493  0.12295259     0.10200
S991        S  0.05807463  0.74172597  0.07884783    -0.33200
S992        S  0.37546013  0.69244573  0.13864783    -0.33200
H993        H  0.36438984  0.72070346  0.15139036     0.28200
H994        H  0.08474366  0.75748157  0.10459149     0.28200
H995        H  0.04125761  0.74298781  0.13983156     0.18800
H996        H  0.38894871  0.69554052  0.07888404     0.18800
C997        C  0.47902983  0.63379595  0.50406855    -0.07000
C998        C  0.46617434  0.61089787  0.02452301    -0.18200
C999        C  0.47524655  0.57922714  0.02128130     0.10200
C1000       C  0.49239041  0.56909823  0.49530889    -0.07000
C1001       C  0.50618904  0.59144707  0.47496759    -0.18200
C1002       C  0.50104301  0.62367582  0.47953908     0.10200
S1003       S  0.46871712  0.55315511  0.05243525    -0.33200
S1004       S  0.52668763  0.65032875  0.45472655    -0.33200
H1005       H  0.54426131  0.67223951  0.47782546     0.28200
H1006       H  0.51395718  0.53838374  0.05235267     0.28200
H1007       H  0.45002489  0.61772803  0.04381154     0.18800
H1008       H  0.52210284  0.58378468  0.45583972     0.18800
C1009       C  0.27234840  0.70370214  0.39054321    -0.07000
C1010       C  0.23334898  0.68597592  0.37287428    -0.18200
C1011       C  0.22451080  0.68638504  0.34101674     0.10200
C1012       C  0.25323347  0.70627226  0.32547078    -0.07000
C1013       C  0.28799443  0.72690103  0.34278586    -0.18200
C1014       C  0.29621932  0.72678500  0.37494893     0.10200
S1015       S  0.17914980  0.65870701  0.32184601    -0.33200
S1016       S  0.33274733  0.75883190  0.39398988    -0.33200
H1017       H  0.30653898  0.76087215  0.41809817     0.28200
H1018       H  0.14793373  0.68214989  0.30724435     0.28200
H1019       H  0.20963363  0.67090150  0.38383157     0.18800
H1020       H  0.30765524  0.74402419  0.33113970     0.18800
C1021       C  0.26862806  0.62455595  0.47382455    -0.07000
C1022       C  0.30479742  0.60895631  0.99484603    -0.18200
C1023       C  0.29895704  0.57706679  0.00110967     0.10200
C1024       C  0.25726985  0.56020367  0.48511866    -0.07000
C1025       C  0.21955859  0.57635680  0.46590655    -0.18200
C1026       C  0.22420166  0.60843238  0.46068875     0.10200
S1027       S  0.34459860  0.55942520  0.03025240    -0.33200
S1028       S  0.17224557  0.62733623  0.43696070    -0.33200
H1029       H  0.18113790  0.65678687  0.45106993     0.28200
H1030       H  0.31121439  0.53825565  0.04053928     0.28200
H1031       H  0.33835755  0.62138715  0.00558366     0.18800
H1032       H  0.18674892  0.56379826  0.45424888     0.18800
C1033       C  0.28488473  0.69708121  0.92528607     0.85600
C1034       C  0.25289157  0.71601719  0.94321194    -0.54700
C1035       C  0.26007838  0.70940342  0.97392142     0.08500
C1036       C  0.29906612  0.68396754  0.98376063     0.19500
C1037       C  0.33913908  0.70229022  0.94215405    -0.55400
C1038       C  0.34631005  0.69575336  0.97287975     0.08600
C1039       C  0.27483089  0.66264582  0.93292287    -0.54900
C1040       C  0.28023715  0.65607489  0.96317776     0.09200
H1041       H  0.22595328  0.73247583  0.93180493     0.13700
H1042       H  0.30614826  0.67741143  0.50817400    -0.00600
H1043       H  0.36937639  0.70956194  0.93095442     0.14000
H1044       H  0.26516247  0.64435976  0.91593548     0.13800
C1045       C  0.45326251  0.71100134  0.54170329     0.85600
C1046       C  0.47889599  0.73251502  0.52133881    -0.54700
C1047       C  0.47685976  0.72158050  0.99234313     0.08500
C1048       C  0.44529306  0.69107147  0.98543710     0.19500
C1049       C  0.39940372  0.70892613  0.52344477    -0.55400
C1050       C  0.39509406  0.69869727  0.99404752     0.08600
C1051       C  0.47427782  0.67847842  0.53899596    -0.54900
C1052       C  0.46933954  0.66738111  0.50991573     0.09200
H1053       H  0.99483630  0.75503648  0.52865666     0.13700
H1054       H  0.44119862  0.68218105  0.96181842    -0.00600
H1055       H  0.36732431  0.71631065  0.53236120     0.14000
H1056       H  0.49017491  0.66476642  0.55900231     0.13800
O1057       O  0.19781696  0.92413650  0.98546250    -0.75300
O1058       O  0.21076567  0.51283742  0.98572785    -0.75400
O1059       O  0.19201436  0.96839946  0.94160564    -0.75400
O1060       O  0.21708711  0.96776723  0.52949767    -0.75500
O1061       O  0.29812615  0.96389375  0.52981118    -0.75400
O1062       O  0.27331195  0.96485416  0.94236977    -0.75400
O1063       O  0.29202942  0.50920000  0.98661319    -0.75400
O1064       O  0.27876822  0.91944155  0.98595314    -0.75400
Ni1065     Ni  0.20166395  0.96844486  0.98551961     1.25400
Ni1066     Ni  0.28856146  0.96418075  0.98606508     1.25400
C1067       C  0.23583265  0.90713386  0.98632174     0.86800
C1068       C  0.25343039  0.52571538  0.98628072     0.86800
C1069       C  0.22860772  0.96611045  0.92763746     0.86800
C1070       C  0.26183248  0.96496740  0.54407480     0.87000
O1071       O  0.45908015  0.97458785  0.94297198    -0.75300
O1072       O  0.47870912  0.96991562  0.52950482    -0.75400
O1073       O  0.46106394  0.51664596  0.98850178    -0.75400
O1074       O  0.47916862  0.92790671  0.98483300    -0.75500
O1075       O  0.06076614  0.93679848  0.98834009    -0.75400
O1076       O  0.04155613  0.52512108  0.98988557    -0.75400
O1077       O  0.06022191  0.97921735  0.53319139    -0.75400
O1078       O  0.04054638  0.98205183  0.94493818    -0.75400
Ni1079     Ni  0.46685476  0.97205007  0.98631378     1.25400
Ni1080     Ni  0.05400265  0.98118358  0.98918433     1.25400
C1081       C  0.49563869  0.97841818  0.92922940     0.86800
C1082       C  0.02243336  0.97402924  0.54593913     0.86800
C1083       C  0.49878064  0.53535063  0.99046827     0.86800
C1084       C  0.02354020  0.91781753  0.98628832     0.87000
C1085       C  0.19972099  0.73109877  0.54268884     0.85600
C1086       C  0.21125741  0.76597463  0.53904899    -0.54700
C1087       C  0.20801914  0.77589424  0.50976382     0.08500
C1088       C  0.19258711  0.74990426  0.98597449     0.19500
C1089       C  0.14711342  0.72686444  0.52280682    -0.55400
C1090       C  0.14338373  0.73672773  0.99310601     0.08600
C1091       C  0.23393383  0.71405634  0.52499210    -0.54900
C1092       C  0.23056377  0.72365349  0.99520593     0.09200
H1093       H  0.22013976  0.78193320  0.55825876     0.13700
H1094       H  0.18903853  0.75893773  0.96229149    -0.00600
H1095       H  0.11445341  0.71896139  0.53129038     0.14000
H1096       H  0.25785792  0.69573274  0.53576425     0.13800
C1097       C  0.03651383  0.74595717  0.92335737     0.85600
C1098       C  0.03804167  0.78089201  0.93092867    -0.54700
C1099       C  0.04511309  0.78744536  0.96122530     0.08500
C1100       C  0.05198013  0.75814061  0.98179215     0.19500
C1101       C  0.08743986  0.73486092  0.94126288    -0.55400
C1102       C  0.09518788  0.74111496  0.97195512     0.08600
C1103       C  0.99802748  0.73082462  0.94026818    -0.54900
C1104       C  0.00596547  0.73695525  0.97085461     0.09200
H1105       H  0.03504163  0.79927263  0.91375020     0.13700
H1106       H  0.05922132  0.76347850  0.50646987    -0.00600
H1107       H  0.11594705  0.72466932  0.93075096     0.14000
H1108       H  0.46776209  0.71591819  0.92880060     0.13800
C1109       C  0.05020122  0.95839145  0.67850856     0.85600
C1110       C  0.02031866  0.97856819  0.69686184    -0.54700
C1111       C  0.02125294  0.96868197  0.72637508     0.08500
C1112       C  0.05384351  0.93987370  0.73496811     0.19500
C1113       C  0.10301724  0.95725329  0.69747258    -0.55400
C1114       C  0.10489026  0.94813035  0.72699024     0.08600
C1115       C  0.03080179  0.92459288  0.68190629    -0.54900
C1116       C  0.03128701  0.91514642  0.71131112     0.09200
H1117       H  0.49885647  0.99843754  0.68644152     0.13700
H1118       H  0.05642653  0.93159100  0.75876363    -0.00600
H1119       H  0.13662702  0.96067224  0.68843934     0.14000
H1120       H  0.01912888  0.90912341  0.66256320     0.13800
C1121       C  0.21100335  0.94758075  0.79652356     0.85600
C1122       C  0.24754792  0.96315710  0.77800341    -0.54700
C1123       C  0.24018621  0.95465001  0.74783162     0.08500
C1124       C  0.19848296  0.92930555  0.73961758     0.19500
C1125       C  0.15909449  0.95347566  0.77791194    -0.55400
C1126       C  0.15239821  0.94399855  0.74841776     0.08600
C1127       C  0.21920815  0.91235190  0.79263528    -0.54900
C1128       C  0.21237868  0.90244178  0.76303617     0.09200
H1129       H  0.27864857  0.97783184  0.78801109     0.13700
H1130       H  0.19136047  0.92101514  0.71569597    -0.00600
H1131       H  0.12998493  0.96444836  0.78736481     0.14000
H1132       H  0.22908769  0.89639966  0.81187526     0.13800
O1133       O  0.20287071  0.70340446  0.77540746    -0.75300
O1134       O  0.18372566  0.71002277  0.68800465    -0.75400
O1135       O  0.20093960  0.66217673  0.72892746    -0.75400
O1136       O  0.18555597  0.75116648  0.73510028    -0.75500
O1137       O  0.26695677  0.75865771  0.73771707    -0.75400
O1138       O  0.28251711  0.67005981  0.73252020    -0.75400
O1139       O  0.26523233  0.71700490  0.69157861    -0.75400
O1140       O  0.28416597  0.71156664  0.77899180    -0.75400
Ni1141     Ni  0.19032165  0.70644486  0.73171097     1.25400
Ni1142     Ni  0.27756224  0.71457660  0.73532296     1.25400
C1143       C  0.24640593  0.70678018  0.79166619     0.86800
C1144       C  0.22163825  0.71378473  0.67524391     0.86800
C1145       C  0.24440300  0.65164040  0.72919732     0.86800
C1146       C  0.22393724  0.76943346  0.73824321     0.87000
O1147       O  0.04067651  0.72497719  0.77882573    -0.75300
O1148       O  0.02160035  0.72488735  0.69085805    -0.75400
O1149       O  0.03415568  0.76989324  0.73485673    -0.75400
O1150       O  0.02905510  0.68025468  0.73533437    -0.75500
O1151       O  0.44775303  0.68199626  0.73414149    -0.75400
O1152       O  0.45214231  0.77140725  0.72993947    -0.75400
O1153       O  0.44020545  0.72483060  0.68848222    -0.75400
O1154       O  0.45905818  0.72855626  0.77547150    -0.75400
Ni1155     Ni  0.03438660  0.72501886  0.73503464     1.25400
Ni1156     Ni  0.44694126  0.72670353  0.73190168     1.25400
C1157       C  0.00251364  0.72691096  0.79144749     0.86800
C1158       C  0.47750238  0.72422502  0.67512096     0.86800
C1159       C  0.99395755  0.78526245  0.73225871     0.86800
C1160       C  0.48736376  0.66635036  0.73513655     0.87000
C1161       C  0.29786470  0.97652470  0.67663965     0.85600
C1162       C  0.27983884  0.50982053  0.67785332    -0.54700
C1163       C  0.28420792  0.52214501  0.70626755     0.08500
C1164       C  0.30385866  0.49857656  0.73200003     0.19500
C1165       C  0.35055119  0.97628829  0.69642486    -0.55400
C1166       C  0.35391940  0.98875541  0.72481020     0.08600
C1167       C  0.26621335  0.95794766  0.69623636    -0.54900
C1168       C  0.26900303  0.96915269  0.72533852     0.09200
H1169       H  0.26358186  0.52241659  0.65723626     0.13700
H1170       H  0.30721539  0.50873964  0.75509802    -0.00600
H1171       H  0.38257764  0.96695008  0.68877746     0.14000
H1172       H  0.24408363  0.93757492  0.68807193     0.13800
C1173       C  0.46097118  0.99267438  0.79507677     0.85600
C1174       C  0.47146231  0.52732101  0.78874941    -0.54700
C1175       C  0.46621156  0.53481064  0.75854224     0.08500
C1176       C  0.44979185  0.50708762  0.73695798     0.19500
C1177       C  0.40785398  0.98628578  0.77658318    -0.55400
C1178       C  0.40209105  0.99352591  0.74629818     0.08600
C1179       C  0.49448589  0.97454545  0.77745045    -0.54900
C1180       C  0.48975900  0.98243278  0.74704330     0.09200
H1181       H  0.48230229  0.54456322  0.80669277     0.13700
H1182       H  0.44387007  0.51391486  0.71250570    -0.00600
H1183       H  0.37677968  0.97638924  0.78544704     0.14000
H1184       H  0.02114957  0.95778184  0.78907730     0.13800
C1185       C  0.48454307  0.63172100  0.73667714    -0.07000
C1186       C  0.52518493  0.61524947  0.75263333    -0.18200
C1187       C  0.52145644  0.58298657  0.75788517     0.10200
C1188       C  0.47552974  0.56701372  0.74820473    -0.07000
C1189       C  0.43605209  0.58301149  0.73066113    -0.18200
C1190       C  0.44071540  0.61487576  0.72407338     0.10200
S1191       S  0.07629295  0.56378128  0.77747111    -0.33200
S1192       S  0.39067680  0.63283284  0.69843560    -0.33200
H1193       H  0.42314317  0.64926962  0.68268205     0.28200
H1194       H  0.56406872  0.53436104  0.76283996     0.28200
H1195       H  0.05943488  0.62770860  0.76184015     0.18800
H1196       H  0.40109848  0.57079221  0.72272482     0.18800
C1197       C  0.25118216  0.61816681  0.72346244    -0.07000
C1198       C  0.27219780  0.61099855  0.69819057    -0.18200
C1199       C  0.28416279  0.58036652  0.69226116     0.10200
C1200       C  0.27265066  0.55544875  0.71135847    -0.07000
C1201       C  0.24946973  0.56257534  0.73597759    -0.18200
C1202       C  0.23927056  0.59359637  0.74243003     0.10200
S1203       S  0.31700390  0.57574075  0.66111956    -0.33200
S1204       S  0.21296839  0.60035195  0.77574891    -0.33200
H1205       H  0.24026537  0.62826074  0.78376511     0.28200
H1206       H  0.35094151  0.55463619  0.67729767     0.28200
H1207       H  0.28080624  0.62976843  0.68332659     0.18800
H1208       H  0.23968673  0.54392355  0.75055970     0.18800
C1209       C  0.21478894  0.86846933  0.75529816    -0.07000
C1210       C  0.19028472  0.84621804  0.77110548    -0.18200
C1211       C  0.19383596  0.81395929  0.76643294     0.10200
C1212       C  0.21916213  0.80329759  0.74381766    -0.07000
C1213       C  0.24352574  0.82529487  0.72795956    -0.18200
C1214       C  0.24286451  0.85745054  0.73406339     0.10200
S1215       S  0.17071835  0.78730830  0.79236978    -0.33200
S1216       S  0.28304791  0.88237125  0.71639247    -0.33200
H1217       H  0.29851631  0.90116875  0.74233287     0.28200
H1218       H  0.21273289  0.76839008  0.79687990     0.28200
H1219       H  0.16989392  0.85395250  0.78819388     0.18800
H1220       H  0.26491964  0.81724403  0.71150572     0.18800
C1221       C  0.01481832  0.88333943  0.71946774    -0.07000
C1222       C  0.04254265  0.86807219  0.74494443    -0.18200
C1223       C  0.03199230  0.83696649  0.75167024     0.10200
C1224       C  0.99663773  0.81965533  0.73096152    -0.07000
C1225       C  0.46663341  0.83541570  0.70678387    -0.18200
C1226       C  0.47381222  0.86741780  0.70168644     0.10200
S1227       S  0.06194638  0.82135973  0.78799921    -0.33200
S1228       S  0.42792171  0.88634048  0.67331226    -0.33200
H1229       H  0.43260429  0.91559589  0.68796888     0.28200
H1230       H  0.02509745  0.79857712  0.79045002     0.28200
H1231       H  0.07300122  0.88010094  0.75964430     0.18800
H1232       H  0.43748366  0.82258535  0.69172633     0.18800
C1233       C  0.00860380  0.72913022  0.82494138    -0.07000
C1234       C  0.98321598  0.75259844  0.83676052    -0.18200
C1235       C  0.98845158  0.75712517  0.86818932     0.10200
C1236       C  0.02420838  0.73961735  0.88886663    -0.07000
C1237       C  0.04660329  0.71442349  0.87675794    -0.18200
C1238       C  0.03782141  0.70848675  0.84527282     0.10200
S1239       S  0.44679803  0.78518366  0.87922283    -0.33200
S1240       S  0.06027503  0.67251653  0.83279157    -0.33200
H1241       H  0.02212924  0.66833513  0.80712348     0.28200
H1242       H  0.94080380  0.77055344  0.90624818     0.28200
H1243       H  0.45843253  0.76749748  0.82140878     0.18800
H1244       H  0.06937957  0.69825358  0.89182997     0.18800
C1245       C  0.20775644  0.72207033  0.57678941    -0.07000
C1246       C  0.17091140  0.70576975  0.58925002    -0.18200
C1247       C  0.17498454  0.70152468  0.62094014     0.10200
C1248       C  0.21597339  0.71485904  0.64126030    -0.07000
C1249       C  0.25411150  0.72929785  0.62880704    -0.18200
C1250       C  0.25180356  0.73167675  0.59718758     0.10200
S1251       S  0.12755863  0.67777180  0.63362687    -0.33200
S1252       S  0.30580716  0.74727282  0.58358107    -0.33200
H1253       H  0.33115065  0.75952773  0.61153876     0.28200
H1254       H  0.16131969  0.66107361  0.65539647     0.28200
H1255       H  0.13901333  0.69542893  0.57451444     0.18800
H1256       H  0.28601523  0.73908334  0.64403261     0.18800
C1257       C  0.03203748  0.88390624  0.98367737    -0.07000
C1258       C  0.06762783  0.87512728  0.96667485    -0.18200
C1259       C  0.07512918  0.84377229  0.96082596     0.10200
C1260       C  0.04623189  0.82017338  0.97210867    -0.07000
C1261       C  0.01298793  0.82865827  0.99089866    -0.18200
C1262       C  0.50538428  0.86025116  0.99680125     0.10200
S1263       S  0.12178105  0.83571182  0.93837810    -0.33200
S1264       S  0.46143878  0.86987658  0.52085413    -0.33200
H1265       H  0.44933591  0.83896836  0.52842462     0.28200
H1266       H  0.13296761  0.80574812  0.95068054     0.28200
H1267       H  0.08901419  0.89294847  0.95704721     0.18800
H1268       H  0.49052123  0.81017000  0.49930271     0.18800
C1269       C  0.48638134  0.97913844  0.89499772    -0.07000
C1270       C  0.02606687  0.98852813  0.88039745    -0.18200
C1271       C  0.01930577  0.99161992  0.84843692     0.10200
C1272       C  0.47106670  0.98577531  0.82984532    -0.07000
C1273       C  0.43264606  0.97528042  0.84474055    -0.18200
C1274       C  0.43941422  0.97177895  0.87659945     0.10200
S1275       S  0.07241580  0.00385820  0.83218071    -0.33200
S1276       S  0.38796497  0.45629807  0.89266330    -0.33200
H1277       H  0.35020523  0.95920858  0.86605873     0.28200
H1278       H  0.10916096  0.99799394  0.85813551     0.28200
H1279       H  0.06206978  0.99421721  0.89409780     0.18800
H1280       H  0.39696639  0.46936763  0.83203218     0.18800
C1281       C  0.02785261  0.97310157  0.57987909    -0.07000
C1282       C  0.07224204  0.98422764  0.59810180    -0.18200
C1283       C  0.07955873  0.98344856  0.63017999     0.10200
C1284       C  0.04335710  0.96839240  0.64476370    -0.07000
C1285       C  0.99718302  0.96062440  0.62650387    -0.18200
C1286       C  0.98901508  0.96250353  0.59474819     0.10200
S1287       S  0.13104971  0.50644288  0.64963574    -0.33200
S1288       S  0.42824966  0.94897542  0.57533050    -0.33200
H1289       H  0.41578410  0.97866440  0.56249104     0.28200
H1290       H  0.10662645  0.51583639  0.67306538     0.28200
H1291       H  0.10025691  0.49467937  0.58713270     0.18800
H1292       H  0.46708407  0.95168750  0.63723222     0.18800
C1293       C  0.22910173  0.87310768  0.99011271    -0.07000
C1294       C  0.19410180  0.86365088  0.00776101    -0.18200
C1295       C  0.18630757  0.83241428  0.51419388     0.10200
C1296       C  0.21323420  0.80925148  0.00238070    -0.07000
C1297       C  0.24766038  0.81837548  0.98411474    -0.18200
C1298       C  0.25606994  0.85012163  0.97791693     0.10200
S1299       S  0.14020594  0.82413245  0.53742389    -0.33200
S1300       S  0.30031480  0.85952072  0.95381343    -0.33200
H1301       H  0.27346393  0.88452846  0.93853547     0.28200
H1302       H  0.12434477  0.79559742  0.52350012     0.28200
H1303       H  0.17233204  0.88087085  0.01674782     0.18800
H1304       H  0.26846719  0.80069909  0.97494310     0.18800
C1305       C  0.27285456  0.96378265  0.57789522    -0.07000
C1306       C  0.31532069  0.48007463  0.59304590    -0.18200
C1307       C  0.32674639  0.48236639  0.62492042     0.10200
C1308       C  0.29467821  0.96758786  0.64289054    -0.07000
C1309       C  0.25355756  0.94980077  0.62748651    -0.18200
C1310       C  0.24284558  0.94749675  0.59553941     0.10200
S1311       S  0.38030837  0.50656207  0.64087054    -0.33200
S1312       S  0.19060832  0.92316828  0.57865790    -0.33200
H1313       H  0.21500042  0.91141259  0.55624819     0.28200
H1314       H  0.39892428  0.51209988  0.61390178     0.28200
H1315       H  0.33820745  0.49252889  0.57938097     0.18800
H1316       H  0.22758947  0.93856765  0.63971787     0.18800
C1317       C  0.21967542  0.96377064  0.89407057    -0.07000
C1318       C  0.24418738  0.98490605  0.87744122    -0.18200
C1319       C  0.23869245  0.98282149  0.84555108     0.10200
C1320       C  0.21309443  0.95646445  0.83015893    -0.07000
C1321       C  0.18525302  0.93708521  0.84687285    -0.18200
C1322       C  0.18809804  0.94045267  0.87830751     0.10200
S1323       S  0.25769033  0.51723643  0.82693898    -0.33200
S1324       S  0.15198662  0.91340060  0.89703519    -0.33200
H1325       H  0.18948096  0.90847775  0.92270015     0.28200
H1326       H  0.21665401  0.51577848  0.80261758     0.28200
H1327       H  0.26628724  0.50393168  0.88950777     0.18800
H1328       H  0.16183079  0.91837046  0.83537737     0.18800
C1329       C  0.46932313  0.72291441  0.64102487    -0.07000
C1330       C  0.50732010  0.73369134  0.62617915    -0.18200
C1331       C  0.50337577  0.73151102  0.59425791     0.10200
C1332       C  0.45869407  0.71941760  0.57584126    -0.07000
C1333       C  0.42162084  0.70778250  0.59128661    -0.18200
C1334       C  0.42585826  0.70976146  0.62295747     0.10200
S1335       S  0.05798442  0.74160878  0.57885279    -0.33200
S1336       S  0.37590699  0.69209559  0.63863151    -0.33200
H1337       H  0.36449106  0.72023667  0.65143770     0.28200
H1338       H  0.08541248  0.75646081  0.60491049     0.28200
H1339       H  0.04105798  0.74288602  0.63984434     0.18800
H1340       H  0.38932049  0.69544369  0.57886962     0.18800
C1341       C  0.47896027  0.63370121  0.00407522    -0.07000
C1342       C  0.46585075  0.61101660  0.52440487    -0.18200
C1343       C  0.47460461  0.57930759  0.52110461     0.10200
C1344       C  0.49280917  0.56904897  0.99540191    -0.07000
C1345       C  0.50620432  0.59140851  0.97493961    -0.18200
C1346       C  0.50087942  0.62362323  0.97948985     0.10200
S1347       S  0.46739607  0.55321104  0.55210624    -0.33200
S1348       S  0.52630068  0.65032095  0.95462163    -0.33200
H1349       H  0.54401295  0.67218998  0.97773769     0.28200
H1350       H  0.51264449  0.53836451  0.55227780     0.28200
H1351       H  0.44960461  0.61789601  0.54364070     0.18800
H1352       H  0.52197720  0.58377157  0.95574686     0.18800
C1353       C  0.27210579  0.70355571  0.89060213    -0.07000
C1354       C  0.23305730  0.68586564  0.87294104    -0.18200
C1355       C  0.22421602  0.68628202  0.84108223     0.10200
C1356       C  0.25310632  0.70605375  0.82553950    -0.07000
C1357       C  0.28800292  0.72660527  0.84285067    -0.18200
C1358       C  0.29610457  0.72656344  0.87500523     0.10200
S1359       S  0.17845649  0.65885970  0.82188371    -0.33200
S1360       S  0.33247873  0.75868097  0.89402424    -0.33200
H1361       H  0.30600959  0.76082134  0.91800128     0.28200
H1362       H  0.14745709  0.68253200  0.80752493     0.28200
H1363       H  0.20926972  0.67085367  0.88390764     0.18800
H1364       H  0.30778063  0.74366358  0.83120588     0.18800
C1365       C  0.26857409  0.62454739  0.97401323    -0.07000
C1366       C  0.30448653  0.60904254  0.49498224    -0.18200
C1367       C  0.29848515  0.57718713  0.50133963     0.10200
C1368       C  0.25740704  0.56015605  0.98517519    -0.07000
C1369       C  0.21939998  0.57639221  0.96629186    -0.18200
C1370       C  0.22398556  0.60847834  0.96112405     0.10200
S1371       S  0.34335347  0.55969834  0.53103873    -0.33200
S1372       S  0.17180146  0.62746763  0.93771278    -0.33200
H1373       H  0.18099620  0.65689251  0.95184101     0.28200
H1374       H  0.30962024  0.53846524  0.54089461     0.28200
H1375       H  0.33786212  0.62151223  0.50594991     0.18800
H1376       H  0.18639831  0.56388894  0.95482452     0.18800
C1377       C  0.78518647  0.19697789  0.42524843     0.85600
C1378       C  0.75316748  0.21587792  0.44319175    -0.54700
C1379       C  0.76035720  0.20924387  0.47389953     0.08500
C1380       C  0.79938633  0.18383458  0.48372415     0.19500
C1381       C  0.83944133  0.20221276  0.44212556    -0.55400
C1382       C  0.84661843  0.19566132  0.47285381     0.08600
C1383       C  0.77519331  0.16252834  0.43287453    -0.54900
C1384       C  0.78059428  0.15594487  0.46312860     0.09200
H1385       H  0.72620074  0.23232497  0.43179426     0.13700
H1386       H  0.80598290  0.17728272  0.00824940    -0.00600
H1387       H  0.86967610  0.20951201  0.43093635     0.14000
H1388       H  0.76550824  0.14425284  0.41587685     0.13800
C1389       C  0.95298652  0.21101769  0.04170938     0.85600
C1390       C  0.97853416  0.23256759  0.02133197    -0.54700
C1391       C  0.97710757  0.22158324  0.49230852     0.08500
C1392       C  0.94562187  0.19104139  0.48547634     0.19500
C1393       C  0.89914584  0.20884462  0.02346450    -0.55400
C1394       C  0.89538747  0.19865668  0.49404511     0.08600
C1395       C  0.97416507  0.17854274  0.03903814    -0.54900
C1396       C  0.96929153  0.16741616  0.00997117     0.09200
H1397       H  0.49458732  0.25509815  0.02874590     0.13700
H1398       H  0.94157555  0.18208978  0.46188119    -0.00600
H1399       H  0.86703735  0.21621059  0.03236039     0.14000
H1400       H  0.99021035  0.16491033  0.05906669     0.13800
O1401       O  0.69792697  0.42400582  0.48564397    -0.75300
O1402       O  0.71082701  0.01272963  0.48570351    -0.75400
O1403       O  0.69229112  0.46807511  0.44158512    -0.75400
O1404       O  0.71750018  0.46752772  0.02949259    -0.75500
O1405       O  0.79849608  0.46350976  0.02973144    -0.75400
O1406       O  0.77367356  0.46470768  0.44258507    -0.75400
O1407       O  0.79211510  0.00916652  0.48663951    -0.75400
O1408       O  0.77893888  0.41941291  0.48628170    -0.75400
Ni1409     Ni  0.70160402  0.46832552  0.48550336     1.25400
Ni1410     Ni  0.78858557  0.46417152  0.48629066     1.25400
C1411       C  0.73601869  0.40705010  0.48660119     0.86800
C1412       C  0.75347794  0.02564635  0.48630429     0.86800
C1413       C  0.72903139  0.46580657  0.42773044     0.86800
C1414       C  0.76224605  0.46464869  0.04403039     0.87000
O1415       O  0.95844504  0.47438861  0.44287063    -0.75300
O1416       O  0.97903060  0.47008428  0.02963382    -0.75400
O1417       O  0.96102399  0.01672079  0.48861502    -0.75400
O1418       O  0.97849853  0.42773063  0.48479063    -0.75500
O1419       O  0.56032262  0.43669910  0.48845387    -0.75400
O1420       O  0.54117326  0.02498763  0.48982380    -0.75400
O1421       O  0.56031220  0.47931683  0.03318118    -0.75400
O1422       O  0.54005410  0.48182467  0.44496753    -0.75400
Ni1423     Ni  0.96614148  0.47188109  0.48623106     1.25400
Ni1424     Ni  0.55337683  0.48108086  0.48918909     1.25400
C1425       C  0.99510765  0.47821429  0.42920797     0.86800
C1426       C  0.52252192  0.47406862  0.04591683     0.86800
C1427       C  0.99882617  0.03536448  0.49061623     0.86800
C1428       C  0.52315786  0.41766094  0.48634720     0.87000
C1429       C  0.69938865  0.23086023  0.04270437     0.85600
C1430       C  0.71082138  0.26575519  0.03909099    -0.54700
C1431       C  0.70759310  0.27569172  0.00981702     0.08500
C1432       C  0.69287747  0.24973390  0.48598556     0.19500
C1433       C  0.64678654  0.22659250  0.02283353    -0.55400
C1434       C  0.64365398  0.23656642  0.49309894     0.08600
C1435       C  0.73363148  0.21386397  0.02500802    -0.54900
C1436       C  0.73081458  0.22345443  0.49519717     0.09200
H1437       H  0.71966782  0.28170517  0.05830970     0.13700
H1438       H  0.68933915  0.25878876  0.46231028    -0.00600
H1439       H  0.61415218  0.21866447  0.03133441     0.14000
H1440       H  0.75757889  0.19554911  0.03577472     0.13800
C1441       C  0.53676755  0.24586470  0.42337727     0.85600
C1442       C  0.53840586  0.28079577  0.43098383    -0.54700
C1443       C  0.54544061  0.28732677  0.46127941     0.08500
C1444       C  0.55227489  0.25800050  0.48181880     0.19500
C1445       C  0.58767293  0.23471453  0.44125878    -0.55400
C1446       C  0.59545651  0.24096381  0.47195549     0.08600
C1447       C  0.49825820  0.23074299  0.44028377    -0.54900
C1448       C  0.50623405  0.23683761  0.47087821     0.09200
H1449       H  0.53548619  0.29919408  0.41382849     0.13700
H1450       H  0.55905464  0.26340918  0.00656603    -0.00600
H1451       H  0.61613594  0.22449623  0.43072619     0.14000
H1452       H  0.96805141  0.21580720  0.42876324     0.13800
C1453       C  0.55040359  0.45849038  0.17855094     0.85600
C1454       C  0.52070737  0.47877842  0.19693776    -0.54700
C1455       C  0.52164205  0.46891332  0.22645985     0.08500
C1456       C  0.55405121  0.44002196  0.23502741     0.19500
C1457       C  0.60324757  0.45720321  0.19748482    -0.55400
C1458       C  0.60513707  0.44810618  0.22701504     0.08600
C1459       C  0.53078662  0.42475397  0.18197594    -0.54900
C1460       C  0.53124784  0.41533283  0.21138739     0.09200
H1461       H  0.99941275  0.49846113  0.18653949     0.13700
H1462       H  0.55663556  0.43177021  0.25882644    -0.00600
H1463       H  0.63684791  0.46048386  0.18841772     0.14000
H1464       H  0.51904364  0.40929324  0.16263646     0.13800
C1465       C  0.71140791  0.44720602  0.29651670     0.85600
C1466       C  0.74796226  0.46275962  0.27798136    -0.54700
C1467       C  0.74050343  0.45430469  0.24778714     0.08500
C1468       C  0.69867345  0.42906138  0.23954960     0.19500
C1469       C  0.65948726  0.45321670  0.27795374    -0.55400
C1470       C  0.65267317  0.44382098  0.24841972     0.08600
C1471       C  0.71944023  0.41197724  0.29253287    -0.54900
C1472       C  0.71252087  0.40215037  0.26290959     0.09200
H1473       H  0.77914637  0.47736749  0.28799845     0.13700
H1474       H  0.69150976  0.42081785  0.21560936    -0.00600
H1475       H  0.63046887  0.46422096  0.28746817     0.14000
H1476       H  0.72930013  0.39595958  0.31172202     0.13800
O1477       O  0.70286799  0.20320982  0.27533052    -0.75300
O1478       O  0.68378182  0.20973943  0.18793452    -0.75400
O1479       O  0.70093702  0.16194392  0.22885408    -0.75400
O1480       O  0.68566218  0.25093988  0.23494828    -0.75500
O1481       O  0.76708397  0.25838889  0.23763234    -0.75400
O1482       O  0.78251892  0.16979758  0.23242334    -0.75400
O1483       O  0.76529615  0.21672902  0.19150959    -0.75400
O1484       O  0.78417908  0.21130049  0.27891796    -0.75400
Ni1485     Ni  0.69036162  0.20621247  0.23162377     1.25400
Ni1486     Ni  0.77761623  0.21430623  0.23524686     1.25400
C1487       C  0.74640371  0.20656929  0.29159383     0.86800
C1488       C  0.72170022  0.21348218  0.17518391     0.86800
C1489       C  0.74438166  0.15140031  0.22907699     0.86800
C1490       C  0.72406537  0.26919079  0.23810069     0.87000
O1491       O  0.54083296  0.22520441  0.27880414    -0.75300
O1492       O  0.52157606  0.22510387  0.19085750    -0.75400
O1493       O  0.53414157  0.27012487  0.23484069    -0.75400
O1494       O  0.52912608  0.18044662  0.23534822    -0.75500
O1495       O  0.94756393  0.18211238  0.23400272    -0.75400
O1496       O  0.95245502  0.27150923  0.23011710    -0.75400
O1497       O  0.94014091  0.22509275  0.18848870    -0.75400
O1498       O  0.95931191  0.22850042  0.27548448    -0.75400
Ni1499     Ni  0.53443595  0.22523633  0.23502290     1.25400
Ni1500     Ni  0.94702249  0.22681802  0.23191709     1.25400
C1501       C  0.50270017  0.22709148  0.29145420     0.86800
C1502       C  0.97737869  0.22443888  0.17508002     0.86800
C1503       C  0.49391718  0.28546543  0.23228945     0.86800
C1504       C  0.98708289  0.16639529  0.23494172     0.87000
C1505       C  0.79824240  0.47615083  0.17659601     0.85600
C1506       C  0.77984374  0.00962578  0.17770491    -0.54700
C1507       C  0.78424122  0.02194224  0.20612319     0.08500
C1508       C  0.80396523  0.99838406  0.23185325     0.19500
C1509       C  0.85092720  0.47599620  0.19638236    -0.55400
C1510       C  0.85422927  0.48845399  0.22476466     0.08600
C1511       C  0.76666100  0.45751096  0.19620584    -0.54900
C1512       C  0.76937091  0.46874983  0.22529570     0.09200
H1513       H  0.76357401  0.02223116  0.15709456     0.13700
H1514       H  0.80732093  0.00854082  0.25495396    -0.00600
H1515       H  0.88299747  0.46671476  0.18874172     0.14000
H1516       H  0.74465736  0.43707246  0.18806744     0.13800
C1517       C  0.96105654  0.49262714  0.29511548     0.85600
C1518       C  0.97098046  0.02734671  0.28875236    -0.54700
C1519       C  0.96583174  0.03485491  0.25855456     0.08500
C1520       C  0.94981985  0.00708848  0.23694684     0.19500
C1521       C  0.90805592  0.48605283  0.27656203    -0.55400
C1522       C  0.90235628  0.49327338  0.24627175     0.08600
C1523       C  0.99492207  0.47469868  0.27757677    -0.54900
C1524       C  0.99018570  0.48253203  0.24715611     0.09200
H1525       H  0.98154691  0.04461179  0.30670329     0.13700
H1526       H  0.94397692  0.01391814  0.21249454    -0.00600
H1527       H  0.87693642  0.47625658  0.28543885     0.14000
H1528       H  0.52157593  0.45798967  0.28915089     0.13800
C1529       C  0.98412610  0.13177642  0.23655807    -0.07000
C1530       C  0.02473910  0.11530731  0.25253496    -0.18200
C1531       C  0.02096363  0.08307081  0.25787743     0.10200
C1532       C  0.97501967  0.06709950  0.24825801    -0.07000
C1533       C  0.93548978  0.08311070  0.23076737    -0.18200
C1534       C  0.94020227  0.11495957  0.22408737     0.10200
S1535       S  0.57614077  0.06402229  0.27788214    -0.33200
S1536       S  0.89013655  0.13293176  0.19848072    -0.33200
H1537       H  0.92254021  0.14927319  0.18260947     0.28200
H1538       H  0.06368316  0.03450246  0.26281527     0.28200
H1539       H  0.55927106  0.12792076  0.26228658     0.18800
H1540       H  0.90049748  0.07090625  0.22290670     0.18800
C1541       C  0.75112119  0.11793994  0.22329870    -0.07000
C1542       C  0.77206089  0.11077879  0.19799312    -0.18200
C1543       C  0.78414594  0.08015930  0.19210125     0.10200
C1544       C  0.77269330  0.05524339  0.21121938    -0.07000
C1545       C  0.74955746  0.06236406  0.23585683    -0.18200
C1546       C  0.73933042  0.09337703  0.24230532     0.10200
S1547       S  0.81715219  0.07555026  0.16103147    -0.33200
S1548       S  0.71311316  0.10013401  0.27565772    -0.33200
H1549       H  0.74023736  0.12811890  0.28359708     0.28200
H1550       H  0.85107715  0.05446532  0.17726304     0.28200
H1551       H  0.78057672  0.12954927  0.18310066     0.18800
H1552       H  0.73983655  0.04371293  0.25046080     0.18800
C1553       C  0.71489385  0.36821594  0.25510664    -0.07000
C1554       C  0.68983267  0.34600140  0.27060583    -0.18200
C1555       C  0.69337761  0.31374673  0.26594755     0.10200
C1556       C  0.71930736  0.30306368  0.24363648    -0.07000
C1557       C  0.74424812  0.32503955  0.22808463    -0.18200
C1558       C  0.74355978  0.35719269  0.23420200     0.10200
S1559       S  0.66945160  0.28711863  0.29157044    -0.33200
S1560       S  0.78438185  0.38211215  0.21701347    -0.33200
H1561       H  0.79925581  0.40088314  0.24303397     0.28200
H1562       H  0.71143427  0.26815567  0.29650461     0.28200
H1563       H  0.66903101  0.35376531  0.28747447     0.18800
H1564       H  0.76609134  0.31697412  0.21187950     0.18800
C1565       C  0.51461659  0.38356096  0.21956133    -0.07000
C1566       C  0.54211033  0.36833398  0.24514963    -0.18200
C1567       C  0.53158517  0.33721705  0.25184031     0.10200
C1568       C  0.49649902  0.31985879  0.23100772    -0.07000
C1569       C  0.96700560  0.33546714  0.20706236    -0.18200
C1570       C  0.97415928  0.36746587  0.20197005     0.10200
S1571       S  0.56128807  0.32164975  0.28824702    -0.33200
S1572       S  0.92825050  0.38637853  0.17360154    -0.33200
H1573       H  0.93298660  0.41564785  0.18822978     0.28200
H1574       H  0.52463342  0.29867552  0.29048933     0.28200
H1575       H  0.57243783  0.38037166  0.25994447     0.18800
H1576       H  0.93783396  0.32264320  0.19201521     0.18800
C1577       C  0.50885156  0.22925621  0.32494093    -0.07000
C1578       C  0.48360838  0.25276821  0.33679494    -0.18200
C1579       C  0.48881944  0.25722365  0.36822580     0.10200
C1580       C  0.52441511  0.23957970  0.38887981    -0.07000
C1581       C  0.54665280  0.21434354  0.37673084    -0.18200
C1582       C  0.53792438  0.20850320  0.34522736     0.10200
S1583       S  0.94729797  0.28519100  0.37904804    -0.33200
S1584       S  0.56040644  0.17257541  0.33265847    -0.33200
H1585       H  0.52266334  0.16860133  0.30674797     0.28200
H1586       H  0.44130488  0.27075261  0.40631363     0.28200
H1587       H  0.95916475  0.26751492  0.32130942     0.18800
H1588       H  0.56932119  0.19810419  0.39178138     0.18800
C1589       C  0.70754514  0.22179901  0.07677826    -0.07000
C1590       C  0.67088123  0.20533278  0.08925309    -0.18200
C1591       C  0.67513266  0.20100704  0.12094227     0.10200
C1592       C  0.71600761  0.21451615  0.14121966    -0.07000
C1593       C  0.75396936  0.22912149  0.12874511    -0.18200
C1594       C  0.75158606  0.23149531  0.09713055     0.10200
S1595       S  0.62815310  0.17690479  0.13369059    -0.33200
S1596       S  0.80547873  0.24720137  0.08347304    -0.33200
H1597       H  0.83069662  0.25962549  0.11138493     0.28200
H1598       H  0.66221698  0.16050243  0.15554114     0.28200
H1599       H  0.63903166  0.19492162  0.07452506     0.18800
H1600       H  0.78578275  0.23903804  0.14394856     0.18800
C1601       C  0.53181056  0.38375496  0.48373313    -0.07000
C1602       C  0.56756635  0.37505551  0.46681314    -0.18200
C1603       C  0.57523453  0.34372001  0.46095402     0.10200
C1604       C  0.54638760  0.32004962  0.47217440    -0.07000
C1605       C  0.51294886  0.32845622  0.49086436    -0.18200
C1606       C  0.00461136  0.36002150  0.49650920     0.10200
S1607       S  0.62199749  0.33577995  0.43855131    -0.33200
S1608       S  0.96162426  0.37015681  0.02109776    -0.33200
H1609       H  0.94995423  0.33927773  0.02900645     0.28200
H1610       H  0.63322747  0.30579365  0.45078455     0.28200
H1611       H  0.58894196  0.39292604  0.45724380     0.18800
H1612       H  0.99045095  0.31038260  0.99953394     0.18800
C1613       C  0.98609249  0.47895267  0.39499341    -0.07000
C1614       C  0.52575061  0.48872573  0.38052837    -0.18200
C1615       C  0.51915428  0.49188109  0.34858483     0.10200
C1616       C  0.97112241  0.48565885  0.32987929    -0.07000
C1617       C  0.93305659  0.47417190  0.34459784    -0.18200
C1618       C  0.93967813  0.47065212  0.37646020     0.10200
S1619       S  0.57219501  0.50448978  0.33242048    -0.33200
S1620       S  0.88810490  0.95548771  0.39257044    -0.33200
H1621       H  0.85164012  0.45486084  0.36546185     0.28200
H1622       H  0.60854431  0.50214312  0.35919771     0.28200
H1623       H  0.56150005  0.49475023  0.39435125     0.18800
H1624       H  0.89717062  0.96840444  0.33188250     0.18800
C1625       C  0.52794261  0.47314912  0.07986701    -0.07000
C1626       C  0.57245039  0.48411865  0.09807080    -0.18200
C1627       C  0.57983117  0.48334432  0.13014991     0.10200
C1628       C  0.54354731  0.46844701  0.14477827    -0.07000
C1629       C  0.49729139  0.46079389  0.12653647    -0.18200
C1630       C  0.48906477  0.46268577  0.09476836     0.10200
S1631       S  0.63221903  0.00617421  0.14966422    -0.33200
S1632       S  0.92852829  0.44930779  0.07548899    -0.33200
H1633       H  0.91637206  0.47905525  0.06269188     0.28200
H1634       H  0.60795167  0.01571395  0.17311288     0.28200
H1635       H  0.60124564  0.99451470  0.08717037     0.18800
H1636       H  0.96755931  0.45176856  0.13738271     0.18800
C1637       C  0.72936898  0.37300798  0.49037732    -0.07000
C1638       C  0.69442356  0.36347843  0.50803543    -0.18200
C1639       C  0.68600261  0.33225423  0.01422449     0.10200
C1640       C  0.71351858  0.30909028  0.50246336    -0.07000
C1641       C  0.74786866  0.31829282  0.48416926    -0.18200
C1642       C  0.75626174  0.35006807  0.47805938     0.10200
S1643       S  0.63998822  0.32407124  0.03754154    -0.33200
S1644       S  0.80037938  0.35957111  0.45389652    -0.33200
H1645       H  0.77355876  0.38466545  0.43876983     0.28200
H1646       H  0.62412239  0.29546473  0.02377314     0.28200
H1647       H  0.67266121  0.38066052  0.51707642     0.18800
H1648       H  0.76863123  0.30065670  0.47490757     0.18800
C1649       C  0.77328606  0.46345254  0.07784720    -0.07000
C1650       C  0.81533629  0.97972741  0.09283052    -0.18200
C1651       C  0.82674018  0.98209188  0.12470201     0.10200
C1652       C  0.79510806  0.46723624  0.14284472    -0.07000
C1653       C  0.75399657  0.44945082  0.12743607    -0.18200
C1654       C  0.74325736  0.44717827  0.09548802     0.10200
S1655       S  0.88009549  0.00648059  0.14051830    -0.33200
S1656       S  0.69087312  0.42296896  0.07860035    -0.33200
H1657       H  0.71509703  0.41122366  0.05610809     0.28200
H1658       H  0.90160760  0.00871185  0.11426420     0.28200
H1659       H  0.83816367  0.99225585  0.07916892     0.18800
H1660       H  0.72803082  0.43821941  0.13967334     0.18800
C1661       C  0.72034095  0.46332689  0.39415756    -0.07000
C1662       C  0.74496127  0.48439623  0.37751686    -0.18200
C1663       C  0.73939480  0.48232709  0.34561409     0.10200
C1664       C  0.71368094  0.45601454  0.33020476    -0.07000
C1665       C  0.68588106  0.43663592  0.34694684    -0.18200
C1666       C  0.68873897  0.44001681  0.37838934     0.10200
S1667       S  0.75747681  0.01703709  0.32679010    -0.33200
S1668       S  0.65251725  0.41302193  0.39710544    -0.33200
H1669       H  0.68980066  0.40823654  0.42290925     0.28200
H1670       H  0.71647946  0.01538987  0.30245501     0.28200
H1671       H  0.76598166  0.00393739  0.38940461     0.18800
H1672       H  0.66240685  0.41794195  0.33545638     0.18800
C1673       C  0.96910291  0.22313265  0.14098849    -0.07000
C1674       C  0.00713258  0.23378132  0.12611129    -0.18200
C1675       C  0.00313013  0.23153185  0.09420024     0.10200
C1676       C  0.95840607  0.21947316  0.07582492    -0.07000
C1677       C  0.92129085  0.20795531  0.09129695    -0.18200
C1678       C  0.92556549  0.21001833  0.12296464     0.10200
S1679       S  0.55796515  0.24131608  0.07884784    -0.33200
S1680       S  0.87560161  0.19246416  0.13870842    -0.33200
H1681       H  0.86439933  0.22064685  0.15153113     0.28200
H1682       H  0.58538497  0.25634363  0.10480417     0.28200
H1683       H  0.54108893  0.24288368  0.13983588     0.18800
H1684       H  0.88894569  0.19563114  0.07891974     0.18800
C1685       C  0.97942130  0.13375307  0.50427212    -0.07000
C1686       C  0.96678288  0.11106513  0.02469341    -0.18200
C1687       C  0.97592303  0.07940788  0.02145255     0.10200
C1688       C  0.99304066  0.06907377  0.49560722    -0.07000
C1689       C  0.00664139  0.09141124  0.47519335    -0.18200
C1690       C  0.00139284  0.12363403  0.47972537     0.10200
S1691       S  0.96965349  0.05334471  0.05265988    -0.33200
S1692       S  0.02687112  0.15028491  0.45484044    -0.33200
H1693       H  0.04445627  0.17222520  0.47790980     0.28200
H1694       H  0.01488324  0.03860554  0.05245773     0.28200
H1695       H  0.95072249  0.11787927  0.04402136     0.18800
H1696       H  0.02244747  0.08374515  0.45602408     0.18800
C1697       C  0.77231728  0.20345664  0.39055475    -0.07000
C1698       C  0.73319018  0.18578265  0.37294027    -0.18200
C1699       C  0.72428472  0.18614075  0.34107515     0.10200
C1700       C  0.75310971  0.20590118  0.32547469    -0.07000
C1701       C  0.78803991  0.22646638  0.34273971    -0.18200
C1702       C  0.79629463  0.22642877  0.37489984     0.10200
S1703       S  0.67868668  0.15856978  0.32196144    -0.33200
S1704       S  0.83289150  0.25849489  0.39384922    -0.33200
H1705       H  0.80664899  0.26064833  0.41793369     0.28200
H1706       H  0.64763921  0.18210010  0.30736869     0.28200
H1707       H  0.70944494  0.17078407  0.38395234     0.18800
H1708       H  0.80778720  0.24350499  0.33105347     0.18800
C1709       C  0.76882959  0.12443626  0.47396923    -0.07000
C1710       C  0.80518197  0.10877810  0.99466262    -0.18200
C1711       C  0.79941161  0.07688185  0.00092958     0.10200
C1712       C  0.75742638  0.06009015  0.48524576    -0.07000
C1713       C  0.71947990  0.07634152  0.46632912    -0.18200
C1714       C  0.72419011  0.10840895  0.46109390     0.10200
S1715       S  0.84549047  0.05917876  0.02976682    -0.33200
S1716       S  0.67210340  0.12741930  0.43760769    -0.33200
H1717       H  0.68135789  0.15686910  0.45167693     0.28200
H1718       H  0.81232687  0.03805879  0.04033334     0.28200
H1719       H  0.83883430  0.12119676  0.00527061     0.18800
H1720       H  0.68645685  0.06385804  0.45486396     0.18800
C1721       C  0.78493613  0.19699851  0.92529855     0.85600
C1722       C  0.75290943  0.21590317  0.94323124    -0.54700
C1723       C  0.76007364  0.20926478  0.97393624     0.08500
C1724       C  0.79908013  0.18383186  0.98376331     0.19500
C1725       C  0.83917312  0.20220533  0.94218700    -0.55400
C1726       C  0.84632040  0.19565177  0.97290454     0.08600
C1727       C  0.77489270  0.16255015  0.93289868    -0.54900
C1728       C  0.78031421  0.15594797  0.96315056     0.09200
H1729       H  0.72598601  0.23237522  0.93183306     0.13700
H1730       H  0.80630280  0.17730639  0.50821517    -0.00600
H1731       H  0.86942691  0.20948688  0.93100832     0.14000
H1732       H  0.76523360  0.14428268  0.91588998     0.13800
C1733       C  0.95329368  0.21100381  0.54170570     0.85600
C1734       C  0.97893946  0.23248440  0.52132020    -0.54700
C1735       C  0.97670222  0.22170923  0.99230634     0.08500
C1736       C  0.94531314  0.19113141  0.98546102     0.19500
C1737       C  0.89945705  0.20888514  0.52342775    -0.55400
C1738       C  0.89507935  0.19865049  0.99407746     0.08600
C1739       C  0.97436002  0.17848773  0.53907454    -0.54900
C1740       C  0.96948830  0.16732734  0.51002422     0.09200
H1741       H  0.49498765  0.25514907  0.52867197     0.13700
H1742       H  0.94125338  0.18221797  0.96185244    -0.00600
H1743       H  0.86735907  0.21628417  0.53231661     0.14000
H1744       H  0.99031057  0.16484470  0.55911714     0.13800
O1745       O  0.69791398  0.42408399  0.98548632    -0.75300
O1746       O  0.71087827  0.01274461  0.98574972    -0.75400
O1747       O  0.69240630  0.46828409  0.94156152    -0.75400
O1748       O  0.71715912  0.46759379  0.52953932    -0.75500
O1749       O  0.79818709  0.46365339  0.52984617    -0.75400
O1750       O  0.77372094  0.46461714  0.94245182    -0.75400
O1751       O  0.79211138  0.00900165  0.98659060    -0.75400
O1752       O  0.77889798  0.41932397  0.98614066    -0.75400
Ni1753     Ni  0.70186399  0.46840241  0.98546962     1.25400
Ni1754     Ni  0.78878609  0.46404568  0.98615468     1.25400
C1755       C  0.73592104  0.40704845  0.98644046     0.86800
C1756       C  0.75358396  0.02556765  0.98630209     0.86800
C1757       C  0.72906151  0.46592216  0.92765565     0.86800
C1758       C  0.76190668  0.46479714  0.54411148     0.87000
O1759       O  0.95852434  0.47466842  0.94301716    -0.75300
O1760       O  0.97869872  0.46985902  0.52950143    -0.75400
O1761       O  0.96138591  0.01688637  0.98853191    -0.75400
O1762       O  0.97853569  0.42797624  0.98488826    -0.75500
O1763       O  0.56070710  0.43667665  0.98829868    -0.75400
O1764       O  0.54194471  0.02510874  0.98987519    -0.75400
O1765       O  0.55975145  0.47944331  0.53321555    -0.75400
O1766       O  0.54032052  0.48191394  0.94489919    -0.75400
Ni1767     Ni  0.96634077  0.47213652  0.98637161     1.25400
Ni1768     Ni  0.55380155  0.48105926  0.98913268     1.25400
C1769       C  0.99509652  0.47848618  0.92927927     0.86800
C1770       C  0.52191271  0.47421747  0.54590371     0.86800
C1771       C  0.99916968  0.03554012  0.99053479     0.86800
C1772       C  0.52352971  0.41765692  0.98626299     0.87000
C1773       C  0.69955866  0.23074094  0.54266235     0.85600
C1774       C  0.71113989  0.26562486  0.53909838    -0.54700
C1775       C  0.70793961  0.27561650  0.50984001     0.08500
C1776       C  0.69256278  0.24976603  0.98600158     0.19500
C1777       C  0.64697293  0.22655559  0.52275179    -0.55400
C1778       C  0.64338078  0.23657319  0.99316578     0.08600
C1779       C  0.73377468  0.21372401  0.52495314    -0.54900
C1780       C  0.73057484  0.22352706  0.99523206     0.09200
H1781       H  0.72006018  0.28153035  0.55834843     0.13700
H1782       H  0.68897642  0.25878541  0.96231188    -0.00600
H1783       H  0.61428567  0.21865420  0.53121196     0.14000
H1784       H  0.75763886  0.19535792  0.53569449     0.13800
C1785       C  0.53643994  0.24577724  0.92345603     0.85600
C1786       C  0.53800730  0.28070363  0.93104577    -0.54700
C1787       C  0.54509111  0.28725399  0.96133810     0.08500
C1788       C  0.55192834  0.25793715  0.98189611     0.19500
C1789       C  0.58736056  0.23466100  0.94134926    -0.55400
C1790       C  0.59513710  0.24091420  0.97204304     0.08600
C1791       C  0.49794204  0.23064686  0.94035958    -0.54900
C1792       C  0.50588899  0.23676226  0.97094958     0.09200
H1793       H  0.53505104  0.29908883  0.91387573     0.13700
H1794       H  0.55941406  0.26346630  0.50648905    -0.00600
H1795       H  0.61585411  0.22447359  0.93082221     0.14000
H1796       H  0.96759510  0.21605084  0.92874501     0.13800
C1797       C  0.55004351  0.45857215  0.67847936     0.85600
C1798       C  0.52014058  0.47868682  0.69685949    -0.54700
C1799       C  0.52119299  0.46880169  0.72637999     0.08500
C1800       C  0.55392905  0.44005208  0.73495922     0.19500
C1801       C  0.60292284  0.45752938  0.69739687    -0.55400
C1802       C  0.60492335  0.44839776  0.72693304     0.08600
C1803       C  0.53083138  0.42474088  0.68191101    -0.54900
C1804       C  0.53139981  0.41529292  0.71132334     0.09200
H1805       H  0.99901153  0.49821753  0.68645848     0.13700
H1806       H  0.55661512  0.43177806  0.75876246    -0.00600
H1807       H  0.63647677  0.46102298  0.68831251     0.14000
H1808       H  0.51919060  0.40925760  0.66257631     0.13800
C1809       C  0.71115510  0.44764301  0.79645380     0.85600
C1810       C  0.74778848  0.46316259  0.77796519    -0.54700
C1811       C  0.74037242  0.45471082  0.74777947     0.08500
C1812       C  0.69849811  0.42947960  0.73950502     0.19500
C1813       C  0.65927159  0.45368568  0.77785395    -0.55400
C1814       C  0.65249988  0.44426720  0.74833056     0.08600
C1815       C  0.71913776  0.41240336  0.79248692    -0.54900
C1816       C  0.71222288  0.40254828  0.76287122     0.09200
H1817       H  0.77897921  0.47775693  0.78799882     0.13700
H1818       H  0.69132336  0.42124006  0.71556550    -0.00600
H1819       H  0.63021940  0.46467434  0.78734599     0.14000
H1820       H  0.72895170  0.39640094  0.81169233     0.13800
O1821       O  0.70290915  0.20346645  0.77541655    -0.75300
O1822       O  0.68363787  0.21001479  0.68800111    -0.75400
O1823       O  0.70108759  0.16224212  0.72893657    -0.75400
O1824       O  0.68533233  0.25119530  0.73506950    -0.75500
O1825       O  0.76669646  0.25880730  0.73762927    -0.75400
O1826       O  0.78264003  0.17023116  0.73251216    -0.75400
O1827       O  0.76511798  0.21710215  0.69154235    -0.75400
O1828       O  0.78416372  0.21177044  0.77897037    -0.75400
Ni1829     Ni  0.69029425  0.20648168  0.73171295     1.25400
Ni1830     Ni  0.77749961  0.21474284  0.73528765     1.25400
C1831       C  0.74644255  0.20690294  0.79166500     0.86800
C1832       C  0.72153228  0.21376482  0.67522263     0.86800
C1833       C  0.74457571  0.15176632  0.72917303     0.86800
C1834       C  0.72363709  0.26952233  0.73815457     0.87000
O1835       O  0.54087421  0.22509908  0.77887742    -0.75300
O1836       O  0.52173738  0.22497079  0.69090853    -0.75400
O1837       O  0.53432467  0.27000948  0.73488559    -0.75400
O1838       O  0.52916845  0.18032173  0.73540587    -0.75500
O1839       O  0.94763088  0.18191883  0.73410850    -0.75400
O1840       O  0.95227589  0.27127704  0.72999924    -0.75400
O1841       O  0.94021137  0.22476929  0.68848000    -0.75400
O1842       O  0.95904874  0.22843014  0.77546508    -0.75400
Ni1843     Ni  0.53454545  0.22511568  0.73508423     1.25400
Ni1844     Ni  0.94694385  0.22660530  0.73190253     1.25400
C1845       C  0.50272449  0.22707478  0.79150457     0.86800
C1846       C  0.97750592  0.22415579  0.67511725     0.86800
C1847       C  0.49412479  0.28538902  0.73226018     0.86800
C1848       C  0.98718203  0.16623287  0.73505632     0.87000
C1849       C  0.79816170  0.47650237  0.67663453     0.85600
C1850       C  0.78009804  0.00995377  0.67774182    -0.54700
C1851       C  0.78447072  0.02228198  0.70615824     0.08500
C1852       C  0.80395961  0.99866696  0.73189511     0.19500
C1853       C  0.85085723  0.47626367  0.69639768    -0.55400
C1854       C  0.85421928  0.48872226  0.72478269     0.08600
C1855       C  0.76652550  0.45793734  0.69624031    -0.54900
C1856       C  0.76929600  0.46916209  0.72532431     0.09200
H1857       H  0.76388743  0.02255433  0.65711950     0.13700
H1858       H  0.80733665  0.00882342  0.75499690    -0.00600
H1859       H  0.88288133  0.46693099  0.68874249     0.14000
H1860       H  0.74439859  0.43756061  0.68809427     0.13800
C1861       C  0.96102692  0.49273242  0.79512360     0.85600
C1862       C  0.97137124  0.02731622  0.78865315    -0.54700
C1863       C  0.96611249  0.03473702  0.75843431     0.08500
C1864       C  0.94981980  0.00697173  0.73689899     0.19500
C1865       C  0.90800608  0.48624951  0.77655855    -0.55400
C1866       C  0.90234293  0.49348262  0.74628233     0.08600
C1867       C  0.99468463  0.47459665  0.77757824    -0.54900
C1868       C  0.99001585  0.48242440  0.74714881     0.09200
H1869       H  0.98212232  0.04461155  0.80655595     0.13700
H1870       H  0.94390522  0.01375808  0.71243456    -0.00600
H1871       H  0.87695804  0.47622532  0.78534217     0.14000
H1872       H  0.52090872  0.45769086  0.78902710     0.13800
C1873       C  0.98426954  0.13161590  0.73656810    -0.07000
C1874       C  0.02504066  0.11509822  0.75228179    -0.18200
C1875       C  0.02132108  0.08284142  0.75751325     0.10200
C1876       C  0.97530152  0.06691977  0.74805053    -0.07000
C1877       C  0.93563752  0.08296329  0.73075758    -0.18200
C1878       C  0.94026994  0.11483176  0.72419252     0.10200
S1879       S  0.57643173  0.06347707  0.77664120    -0.33200
S1880       S  0.88997668  0.13288495  0.69886924    -0.33200
H1881       H  0.92219577  0.14916458  0.68283046     0.28200
H1882       H  0.06382504  0.03417443  0.76225611     0.28200
H1883       H  0.55973875  0.12752351  0.76130456     0.18800
H1884       H  0.90058871  0.07077839  0.72300484     0.18800
C1885       C  0.75140639  0.11830455  0.72340522    -0.07000
C1886       C  0.77227891  0.11115058  0.69807263    -0.18200
C1887       C  0.78429524  0.08052513  0.69212828     0.10200
C1888       C  0.77291372  0.05559504  0.71125767    -0.07000
C1889       C  0.74976168  0.06270805  0.73589467    -0.18200
C1890       C  0.73951308  0.09371821  0.74235493     0.10200
S1891       S  0.81702633  0.07592831  0.66092714    -0.33200
S1892       S  0.71296692  0.10043063  0.77559119    -0.33200
H1893       H  0.74001618  0.12842146  0.78362401     0.28200
H1894       H  0.85111693  0.05490399  0.67709832     0.28200
H1895       H  0.78073275  0.12992804  0.68317056     0.18800
H1896       H  0.73998389  0.04404819  0.75046879     0.18800
C1897       C  0.71445810  0.36857699  0.75508748    -0.07000
C1898       C  0.68990976  0.34635284  0.77090040    -0.18200
C1899       C  0.69347159  0.31408593  0.76627390     0.10200
C1900       C  0.71874646  0.30339251  0.74364674    -0.07000
C1901       C  0.74308382  0.32536715  0.72774992    -0.18200
C1902       C  0.74252971  0.35752159  0.73386960     0.10200
S1903       S  0.67057296  0.28747859  0.79233563    -0.33200
S1904       S  0.78300014  0.38236227  0.71634398    -0.33200
H1905       H  0.79849104  0.40107039  0.74234691     0.28200
H1906       H  0.71263911  0.26860107  0.79682164     0.28200
H1907       H  0.66955883  0.35411310  0.78799924     0.18800
H1908       H  0.76447455  0.31729109  0.71130451     0.18800
C1909       C  0.51490377  0.38348842  0.71948763    -0.07000
C1910       C  0.54252085  0.36824422  0.74501891    -0.18200
C1911       C  0.53199294  0.33712580  0.75172193     0.10200
C1912       C  0.49678286  0.31978558  0.73094931    -0.07000
C1913       C  0.96674943  0.33520787  0.70698392    -0.18200
C1914       C  0.97378169  0.36721888  0.70194109     0.10200
S1915       S  0.56178495  0.32153116  0.78809248    -0.33200
S1916       S  0.92777927  0.38610376  0.67361150    -0.33200
H1917       H  0.93242841  0.41535053  0.68828215     0.28200
H1918       H  0.52489730  0.29875305  0.79047426     0.28200
H1919       H  0.57289203  0.38029176  0.75977257     0.18800
H1920       H  0.93765167  0.32235679  0.69190534     0.18800
C1921       C  0.50880995  0.22924234  0.82500156    -0.07000
C1922       C  0.48346179  0.25271113  0.83684882    -0.18200
C1923       C  0.48854315  0.25711605  0.86828423     0.10200
C1924       C  0.52414779  0.23949626  0.88895543    -0.07000
C1925       C  0.54650742  0.21431215  0.87681199    -0.18200
C1926       C  0.53785416  0.20849008  0.84530660     0.10200
S1927       S  0.94699445  0.28549951  0.87898619    -0.33200
S1928       S  0.56026931  0.17253724  0.83275908    -0.33200
H1929       H  0.52230222  0.16849335  0.80697498     0.28200
H1930       H  0.44083936  0.27047961  0.90633146     0.28200
H1931       H  0.95882704  0.26767839  0.82124999     0.18800
H1932       H  0.56917340  0.19807642  0.89186813     0.18800
C1933       C  0.70760287  0.22168022  0.57675017    -0.07000
C1934       C  0.67071276  0.20547919  0.58925680    -0.18200
C1935       C  0.67484445  0.20129635  0.62096283     0.10200
C1936       C  0.71586494  0.21466901  0.64123469    -0.07000
C1937       C  0.75404750  0.22897476  0.62872797    -0.18200
C1938       C  0.75172191  0.23123502  0.59710578     0.10200
S1939       S  0.62747543  0.17756657  0.63373751    -0.33200
S1940       S  0.80574785  0.24669657  0.58343077    -0.33200
H1941       H  0.83119990  0.25897113  0.61135049     0.28200
H1942       H  0.66128263  0.16095421  0.65555765     0.28200
H1943       H  0.63873080  0.19519309  0.57454936     0.18800
H1944       H  0.78599227  0.23876555  0.64391069     0.18800
C1945       C  0.53208784  0.38374882  0.98369359    -0.07000
C1946       C  0.56758310  0.37495177  0.96663148    -0.18200
C1947       C  0.57509159  0.34358532  0.96082498     0.10200
C1948       C  0.54627450  0.31999591  0.97219967    -0.07000
C1949       C  0.51313448  0.32850842  0.99104582    -0.18200
C1950       C  0.00449483  0.36024898  0.99660953     0.10200
S1951       S  0.62168010  0.33549862  0.93833481    -0.33200
S1952       S  0.96170523  0.36986755  0.52099482    -0.33200
H1953       H  0.94958106  0.33896341  0.52856442     0.28200
H1954       H  0.63291595  0.30555479  0.95067448     0.28200
H1955       H  0.58889039  0.39276457  0.95693353     0.18800
H1956       H  0.99065741  0.31014078  0.49939171     0.18800
C1957       C  0.98590259  0.47927405  0.89505457    -0.07000
C1958       C  0.52596441  0.48813304  0.88039074    -0.18200
C1959       C  0.51922228  0.49130501  0.84844665     0.10200
C1960       C  0.97089404  0.48591907  0.82991096    -0.07000
C1961       C  0.93227374  0.47563931  0.84475823    -0.18200
C1962       C  0.93901709  0.47186958  0.87659470     0.10200
S1963       S  0.57249733  0.50329074  0.83225470    -0.33200
S1964       S  0.88861821  0.95570984  0.89271217    -0.33200
H1965       H  0.85299789  0.45173239  0.86499916     0.28200
H1966       H  0.60912061  0.49571143  0.85776313     0.28200
H1967       H  0.56207589  0.49359286  0.89407555     0.18800
H1968       H  0.89715233  0.96939023  0.83208555     0.18800
C1969       C  0.52727246  0.47336448  0.57984322    -0.07000
C1970       C  0.57156511  0.48466275  0.59804792    -0.18200
C1971       C  0.57896442  0.48383753  0.63012504     0.10200
C1972       C  0.54298094  0.46857722  0.64472644    -0.07000
C1973       C  0.49682607  0.46067376  0.62649471    -0.18200
C1974       C  0.48855935  0.46259982  0.59473252     0.10200
S1975       S  0.63106084  0.00685963  0.64953695    -0.33200
S1976       S  0.92807040  0.44901981  0.57528511    -0.33200
H1977       H  0.91594336  0.47876588  0.56247171     0.28200
H1978       H  0.60668392  0.01624077  0.67299217     0.28200
H1979       H  0.60022801  0.99497388  0.58704432     0.18800
H1980       H  0.96706347  0.45126549  0.63721124     0.18800
C1981       C  0.72913935  0.37301736  0.99020878    -0.07000
C1982       C  0.69392223  0.36353686  0.00769561    -0.18200
C1983       C  0.68650814  0.33217713  0.51448694     0.10200
C1984       C  0.71320023  0.30914005  0.00239002    -0.07000
C1985       C  0.74786198  0.31829126  0.98429759    -0.18200
C1986       C  0.75633889  0.35004551  0.97816837     0.10200
S1987       S  0.64060526  0.32392912  0.53786830    -0.33200
S1988       S  0.80106021  0.35948352  0.95439638    -0.33200
H1989       H  0.77420576  0.38436219  0.93886686     0.28200
H1990       H  0.62446950  0.29546019  0.52389065     0.28200
H1991       H  0.67203840  0.38074647  0.01660443     0.18800
H1992       H  0.76884027  0.30063099  0.97523797     0.18800
C1993       C  0.77295154  0.46368616  0.57792472    -0.07000
C1994       C  0.81554581  0.98005080  0.59294689    -0.18200
C1995       C  0.82689457  0.98242028  0.62482254     0.10200
C1996       C  0.79491306  0.46753934  0.64290180    -0.07000
C1997       C  0.75371149  0.44980010  0.62754024    -0.18200
C1998       C  0.74290707  0.44748921  0.59560478     0.10200
S1999       S  0.88042273  0.00663358  0.64079513    -0.33200
S2000       S  0.69043297  0.42331983  0.57879468    -0.33200
H2001       H  0.71464058  0.41147204  0.55634635     0.28200
H2002       H  0.89880684  0.01242517  0.61378695     0.28200
H2003       H  0.83840634  0.99250912  0.57926797     0.18800
H2004       H  0.72771291  0.43863333  0.63979124     0.18800
C2005       C  0.72022708  0.46357972  0.89408605    -0.07000
C2006       C  0.74482018  0.48469556  0.87747985    -0.18200
C2007       C  0.73919672  0.48270264  0.84557412     0.10200
C2008       C  0.71337808  0.45644545  0.83012627    -0.07000
C2009       C  0.68551813  0.43707038  0.84683256    -0.18200
C2010       C  0.68850286  0.44034994  0.87828967     0.10200
S2011       S  0.75794590  0.01731018  0.82688200    -0.33200
S2012       S  0.65233276  0.41331867  0.89700086    -0.33200
H2013       H  0.68984253  0.40831918  0.92264588     0.28200
H2014       H  0.71693880  0.01592204  0.80253834     0.28200
H2015       H  0.76619581  0.00405767  0.88944228     0.18800
H2016       H  0.66195816  0.41843019  0.83530921     0.18800
C2017       C  0.96931811  0.22288305  0.64101873    -0.07000
C2018       C  0.00729675  0.23370046  0.62617725    -0.18200
C2019       C  0.00334982  0.23155120  0.59425297     0.10200
C2020       C  0.95867474  0.21945821  0.57582944    -0.07000
C2021       C  0.92161686  0.20778793  0.59126993    -0.18200
C2022       C  0.92586415  0.20972525  0.62294425     0.10200
S2023       S  0.55807946  0.24195959  0.57890782    -0.33200
S2024       S  0.87597875  0.19196177  0.63861293    -0.33200
H2025       H  0.86451481  0.22004340  0.65150475     0.28200
H2026       H  0.58610744  0.25602031  0.60522580     0.28200
H2027       H  0.54105001  0.24320928  0.63990900     0.18800
H2028       H  0.88933777  0.19543326  0.57884628     0.18800
C2029       C  0.97934200  0.13386845  0.00417497    -0.07000
C2030       C  0.96654663  0.11098263  0.52472244    -0.18200
C2031       C  0.97545583  0.07928772  0.52147017     0.10200
C2032       C  0.99330330  0.06923571  0.99550918    -0.07000
C2033       C  0.00653240  0.09159394  0.97499400    -0.18200
C2034       C  0.00115416  0.12380343  0.97953820     0.10200
S2035       S  0.96859525  0.05322035  0.55256560    -0.33200
S2036       S  0.02634835  0.15050979  0.95457784    -0.33200
H2037       H  0.04405630  0.17242734  0.97764791     0.28200
H2038       H  0.01368018  0.03826231  0.55249353     0.28200
H2039       H  0.95037735  0.11785186  0.54399108     0.18800
H2040       H  0.02218623  0.08396070  0.95575326     0.18800
C2041       C  0.77220422  0.20352020  0.89061984    -0.07000
C2042       C  0.73311940  0.18588141  0.87293787    -0.18200
C2043       C  0.72426731  0.18634494  0.84107757     0.10200
C2044       C  0.75318135  0.20612152  0.82554871    -0.07000
C2045       C  0.78815811  0.22660602  0.84288883    -0.18200
C2046       C  0.79628413  0.22651275  0.87504645     0.10200
S2047       S  0.67846302  0.15896169  0.82185865    -0.33200
S2048       S  0.83280083  0.25856251  0.89409699    -0.33200
H2049       H  0.80637291  0.26070512  0.91809545     0.28200
H2050       H  0.64747576  0.18266793  0.80755819     0.28200
H2051       H  0.70931812  0.17086520  0.88389150     0.18800
H2052       H  0.80798594  0.24365581  0.83126619     0.18800
C2053       C  0.76878531  0.12439125  0.97396805    -0.07000
C2054       C  0.80495086  0.10884404  0.49487151    -0.18200
C2055       C  0.79898101  0.07698193  0.50120025     0.10200
C2056       C  0.75765961  0.06000383  0.98519238    -0.07000
C2057       C  0.71954176  0.07625874  0.96642627    -0.18200
C2058       C  0.72414064  0.10832725  0.96118919     0.10200
S2059       S  0.84445295  0.05935259  0.53045546    -0.33200
S2060       S  0.67192287  0.12727825  0.93777457    -0.33200
H2061       H  0.68112395  0.15673073  0.95184154     0.28200
H2062       H  0.81097249  0.03818985  0.54065836     0.28200
H2063       H  0.83852710  0.12125137  0.50562098     0.18800
H2064       H  0.68644723  0.06377266  0.95506559     0.18800
C2065       C  0.78489975  0.69694824  0.42524362     0.85600
C2066       C  0.75296050  0.71589545  0.44319891    -0.54700
C2067       C  0.76018471  0.70926664  0.47390910     0.08500
C2068       C  0.79914309  0.68381847  0.48371885     0.19500
C2069       C  0.83917054  0.70213317  0.44208957    -0.55400
C2070       C  0.84637484  0.69560834  0.47281808     0.08600
C2071       C  0.77482972  0.66251535  0.43287987    -0.54900
C2072       C  0.78021948  0.65593879  0.46313173     0.09200
H2073       H  0.72603293  0.73237113  0.43181231     0.13700
H2074       H  0.80612686  0.67732963  0.00823270    -0.00600
H2075       H  0.86939634  0.70940083  0.43088031     0.14000
H2076       H  0.76512763  0.64423607  0.41588851     0.13800
C2077       C  0.95318612  0.71105131  0.04166812     0.85600
C2078       C  0.97873698  0.73261622  0.02130941    -0.54700
C2079       C  0.97692375  0.72158753  0.49224565     0.08500
C2080       C  0.94537101  0.69107048  0.48534719     0.19500
C2081       C  0.89930959  0.70894349  0.02345368    -0.55400
C2082       C  0.89516887  0.69864756  0.49397304     0.08600
C2083       C  0.97429513  0.67857368  0.03891242    -0.54900
C2084       C  0.96928371  0.66748080  0.00982131     0.09200
H2085       H  0.49480039  0.75501529  0.02877355     0.13700
H2086       H  0.94126957  0.68217976  0.46172903    -0.00600
H2087       H  0.86723653  0.71629331  0.03239614     0.14000
H2088       H  0.99035521  0.66490456  0.05891158     0.13800
O2089       O  0.69824246  0.92404534  0.48580673    -0.75300
O2090       O  0.71052729  0.51268600  0.48549665    -0.75400
O2091       O  0.69230977  0.96813426  0.44176616    -0.75400
O2092       O  0.71735135  0.96746374  0.02960118    -0.75500
O2093       O  0.79832015  0.96340986  0.02977623    -0.75400
O2094       O  0.77364948  0.96476740  0.44260997    -0.75400
O2095       O  0.79186283  0.50914144  0.48659129    -0.75400
O2096       O  0.77921219  0.91945429  0.48630481    -0.75400
Ni2097     Ni  0.70189162  0.96836157  0.48569145     1.25400
Ni2098     Ni  0.78882697  0.96420559  0.48632005     1.25400
C2099       C  0.73632134  0.90709118  0.48669665     0.86800
C2100       C  0.75318676  0.52561169  0.48617036     0.86800
C2101       C  0.72895426  0.96587506  0.42783172     0.86800
C2102       C  0.76211291  0.96456139  0.04410950     0.87000
O2103       O  0.95908847  0.97448335  0.44302100    -0.75300
O2104       O  0.97963990  0.97018960  0.02959102    -0.75400
O2105       O  0.96025867  0.51659959  0.48845210    -0.75400
O2106       O  0.97912587  0.92783409  0.48494410    -0.75500
O2107       O  0.55966485  0.93660203  0.48816353    -0.75400
O2108       O  0.54156881  0.52509561  0.48986342    -0.75400
O2109       O  0.56026607  0.97927857  0.03307997    -0.75400
O2110       O  0.53929114  0.98183951  0.44481554    -0.75400
Ni2111     Ni  0.96683062  0.97199526  0.48637024     1.25400
Ni2112     Ni  0.55285683  0.98097496  0.48902115     1.25400
C2113       C  0.99570329  0.97829436  0.42932105     0.86800
C2114       C  0.52253325  0.97402713  0.04586813     0.86800
C2115       C  0.99802239  0.53526732  0.49040371     0.86800
C2116       C  0.52247392  0.91759196  0.48609629     0.87000
C2117       C  0.69941681  0.73081611  0.04273483     0.85600
C2118       C  0.71091183  0.76571684  0.03916608    -0.54700
C2119       C  0.70771719  0.77568474  0.00990119     0.08500
C2120       C  0.69286837  0.74982546  0.48604134     0.19500
C2121       C  0.64682821  0.72660015  0.02283928    -0.55400
C2122       C  0.64365247  0.73669070  0.49319614     0.08600
C2123       C  0.73365903  0.71382028  0.02502778    -0.54900
C2124       C  0.73075299  0.72352179  0.49522990     0.09200
H2125       H  0.71972683  0.78164828  0.05840096     0.13700
H2126       H  0.68930608  0.75887617  0.46236352    -0.00600
H2127       H  0.61416377  0.71867634  0.03130908     0.14000
H2128       H  0.75756412  0.69547186  0.03576822     0.13800
C2129       C  0.53682126  0.74577707  0.42341643     0.85600
C2130       C  0.53832409  0.78071290  0.43097175    -0.54700
C2131       C  0.54526392  0.78727858  0.46125397     0.08500
C2132       C  0.55218579  0.75799629  0.48184026     0.19500
C2133       C  0.58774199  0.73470652  0.44134377    -0.55400
C2134       C  0.59545357  0.74100202  0.47203057     0.08600
C2135       C  0.49832720  0.73062661  0.44031881    -0.54900
C2136       C  0.50621704  0.73677941  0.47090188     0.09200
H2137       H  0.53534297  0.79909078  0.41379024     0.13700
H2138       H  0.55912462  0.76346574  0.00656460    -0.00600
H2139       H  0.61627025  0.72451399  0.43085107     0.14000
H2140       H  0.96791406  0.71587887  0.42871504     0.13800
C2141       C  0.55064921  0.95842173  0.17855160     0.85600
C2142       C  0.52089060  0.97871285  0.19690256    -0.54700
C2143       C  0.52176129  0.96887085  0.22642796     0.08500
C2144       C  0.55418806  0.93998613  0.23503646     0.19500
C2145       C  0.60347166  0.95716103  0.19752882    -0.55400
C2146       C  0.60530244  0.94807175  0.22706094     0.08600
C2147       C  0.53105634  0.92468334  0.18198690    -0.54900
C2148       C  0.53147196  0.91528025  0.21139443     0.09200
H2149       H  0.99939068  0.99854114  0.18659712     0.13700
H2150       H  0.55671696  0.93173441  0.25883539    -0.00600
H2151       H  0.63710026  0.96044567  0.18849310     0.14000
H2152       H  0.51935814  0.90920104  0.16265748     0.13800
C2153       C  0.71144554  0.94723925  0.29663336     0.85600
C2154       C  0.74800291  0.96282265  0.27811166    -0.54700
C2155       C  0.74062036  0.95434249  0.24792335     0.08500
C2156       C  0.69885966  0.92904513  0.23968556     0.19500
C2157       C  0.65953773  0.95319071  0.27803064    -0.55400
C2158       C  0.65280169  0.94378129  0.24850532     0.08600
C2159       C  0.71958507  0.91201212  0.29268418    -0.54900
C2160       C  0.71272761  0.90214518  0.26307160     0.09200
H2161       H  0.77910407  0.97749758  0.28812934     0.13700
H2162       H  0.69173584  0.92078557  0.21575253    -0.00600
H2163       H  0.63047477  0.96418805  0.28750875     0.14000
H2164       H  0.72945603  0.89602274  0.31189474     0.13800
O2165       O  0.70283386  0.70305764  0.27536306    -0.75300
O2166       O  0.68358399  0.70965406  0.18797316    -0.75400
O2167       O  0.70086488  0.66181897  0.22885428    -0.75400
O2168       O  0.68557609  0.75084933  0.23505463    -0.75500
O2169       O  0.76697802  0.75828768  0.23765333    -0.75400
O2170       O  0.78243791  0.66969373  0.23242086    -0.75400
O2171       O  0.76509465  0.71661661  0.19151744    -0.75400
O2172       O  0.78413113  0.71118489  0.27892700    -0.75400
Ni2173     Ni  0.69026084  0.70609924  0.23166899     1.25400
Ni2174     Ni  0.77750145  0.71419950  0.23525299     1.25400
C2175       C  0.74637364  0.70642345  0.29161210     0.86800
C2176       C  0.72148479  0.71338102  0.17520477     0.86800
C2177       C  0.74431866  0.65128248  0.22906381     0.86800
C2178       C  0.72398784  0.76910172  0.23818166     0.87000
O2179       O  0.54098464  0.72513102  0.27881875    -0.75300
O2180       O  0.52171411  0.72491698  0.19086969    -0.75400
O2181       O  0.53440253  0.76999523  0.23479330    -0.75400
O2182       O  0.52916234  0.68033427  0.23540481    -0.75500
O2183       O  0.94759993  0.68199816  0.23392504    -0.75400
O2184       O  0.95211668  0.77141783  0.23005938    -0.75400
O2185       O  0.94012364  0.72499306  0.18842817    -0.75400
O2186       O  0.95905030  0.72838824  0.27543105    -0.75400
Ni2187     Ni  0.53458379  0.72510862  0.23503315     1.25400
Ni2188     Ni  0.94687374  0.72670847  0.23185357     1.25400
C2189       C  0.50286231  0.72708816  0.29147087     0.86800
C2190       C  0.97741461  0.72438744  0.17506061     0.86800
C2191       C  0.49421505  0.78537904  0.23220645     0.86800
C2192       C  0.98720949  0.66635620  0.23491922     0.87000
C2193       C  0.79822740  0.97627178  0.17669232     0.85600
C2194       C  0.77981062  0.50950388  0.17757888    -0.54700
C2195       C  0.78414152  0.52182726  0.20599008     0.08500
C2196       C  0.80387923  0.49830020  0.23173171     0.19500
C2197       C  0.85093741  0.97609390  0.19645265    -0.55400
C2198       C  0.85428165  0.98851373  0.22485882     0.08600
C2199       C  0.76667906  0.95762685  0.19631662    -0.54900
C2200       C  0.76943263  0.96884017  0.22541861     0.09200
H2201       H  0.76358796  0.52211151  0.15695885     0.13700
H2202       H  0.80718197  0.50848043  0.25481970    -0.00600
H2203       H  0.88298614  0.96681715  0.18878284     0.14000
H2204       H  0.74468929  0.93718651  0.18817558     0.13800
C2205       C  0.96119679  0.99265737  0.29518649     0.85600
C2206       C  0.97083685  0.52732346  0.28869151    -0.54700
C2207       C  0.96581129  0.53483314  0.25849802     0.08500
C2208       C  0.94979072  0.50706419  0.23688202     0.19500
C2209       C  0.90817321  0.98606521  0.27665448    -0.55400
C2210       C  0.90242204  0.99329726  0.24636077     0.08600
C2211       C  0.99500915  0.97471455  0.27761730    -0.54900
C2212       C  0.99022178  0.98255156  0.24719544     0.09200
H2213       H  0.98135979  0.54458637  0.30664772     0.13700
H2214       H  0.94399415  0.51388654  0.21242887    -0.00600
H2215       H  0.87710276  0.97619219  0.28553880     0.14000
H2216       H  0.52137341  0.95792628  0.28909674     0.13800
C2217       C  0.98437761  0.63173776  0.23650528    -0.07000
C2218       C  0.02482177  0.61532624  0.25275484    -0.18200
C2219       C  0.02102399  0.58309044  0.25809861     0.10200
C2220       C  0.97518442  0.56706811  0.24821648    -0.07000
C2221       C  0.93588844  0.58302620  0.23042937    -0.18200
C2222       C  0.94067119  0.61486653  0.22373715     0.10200
S2223       S  0.57632313  0.56382790  0.27738038    -0.33200
S2224       S  0.89100443  0.63276825  0.19774439    -0.33200
H2225       H  0.92378942  0.64923258  0.18223518     0.28200
H2226       H  0.06381424  0.53455088  0.26340123     0.28200
H2227       H  0.55942763  0.62777676  0.26200297     0.18800
H2228       H  0.90100336  0.57079108  0.22235636     0.18800
C2229       C  0.75110694  0.61782017  0.22325603    -0.07000
C2230       C  0.77241258  0.61070059  0.19807911    -0.18200
C2231       C  0.78432908  0.58006497  0.19210887     0.10200
C2232       C  0.77256390  0.55511842  0.21108758    -0.07000
C2233       C  0.74915144  0.56219929  0.23561429    -0.18200
C2234       C  0.73893387  0.59320777  0.24208925     0.10200
S2235       S  0.81734811  0.57543108  0.16105201    -0.33200
S2236       S  0.71230377  0.59990270  0.27528842    -0.33200
H2237       H  0.73978934  0.62770259  0.28350488     0.28200
H2238       H  0.85105416  0.55418925  0.17721758     0.28200
H2239       H  0.78121867  0.62949968  0.18330788     0.18800
H2240       H  0.73920279  0.54351588  0.25010874     0.18800
C2241       C  0.71510510  0.86817736  0.25530078    -0.07000
C2242       C  0.69028643  0.84594961  0.27094241    -0.18200
C2243       C  0.69374625  0.81368579  0.26624823     0.10200
C2244       C  0.71930953  0.80299181  0.24376061    -0.07000
C2245       C  0.74405584  0.82497394  0.22809356    -0.18200
C2246       C  0.74347617  0.85713475  0.23423770     0.10200
S2247       S  0.67022059  0.78705656  0.29203582    -0.33200
S2248       S  0.78407359  0.88203682  0.21685340    -0.33200
H2249       H  0.79915896  0.90085199  0.24282180     0.28200
H2250       H  0.71215837  0.76806327  0.29670404     0.28200
H2251       H  0.66971917  0.85370718  0.28793229     0.18800
H2252       H  0.76566930  0.81690576  0.21176536     0.18800
C2253       C  0.51491401  0.88349418  0.21955099    -0.07000
C2254       C  0.54253666  0.86823131  0.24506644    -0.18200
C2255       C  0.53205835  0.83709800  0.25172308     0.10200
C2256       C  0.49688120  0.81976911  0.23091860    -0.07000
C2257       C  0.96667655  0.83541160  0.20691494    -0.18200
C2258       C  0.97390285  0.86739677  0.20175776     0.10200
S2259       S  0.56189988  0.82148171  0.28807482    -0.33200
S2260       S  0.92821879  0.88620304  0.17316604    -0.33200
H2261       H  0.93273010  0.91551735  0.18770207     0.28200
H2262       H  0.52525398  0.79851797  0.29037480     0.28200
H2263       H  0.57290124  0.88026780  0.25983500     0.18800
H2264       H  0.93760042  0.82255760  0.19182316     0.18800
C2265       C  0.50901307  0.72922896  0.32496680    -0.07000
C2266       C  0.48356833  0.75261970  0.33684709    -0.18200
C2267       C  0.48874809  0.75702684  0.36828371     0.10200
C2268       C  0.52451735  0.73948410  0.38892009    -0.07000
C2269       C  0.54700454  0.71437477  0.37674606    -0.18200
C2270       C  0.53826706  0.70854786  0.34523984     0.10200
S2271       S  0.94714709  0.78524821  0.37904745    -0.33200
S2272       S  0.56086360  0.67267125  0.33265496    -0.33200
H2273       H  0.52291218  0.66856898  0.30687284     0.28200
H2274       H  0.44107840  0.77033944  0.40637521     0.28200
H2275       H  0.95875253  0.76743733  0.32129309     0.18800
H2276       H  0.56983261  0.69819584  0.39177702     0.18800
C2277       C  0.70748170  0.72171018  0.07679958    -0.07000
C2278       C  0.67073381  0.70528522  0.08924155    -0.18200
C2279       C  0.67488300  0.70097787  0.12093085     0.10200
C2280       C  0.71578964  0.71442140  0.14123717    -0.07000
C2281       C  0.75383367  0.72896262  0.12879068    -0.18200
C2282       C  0.75150611  0.73135872  0.09718539     0.10200
S2283       S  0.62771269  0.67700772  0.13363787    -0.33200
S2284       S  0.80546479  0.74703721  0.08358842    -0.33200
H2285       H  0.83036667  0.75972525  0.11145814     0.28200
H2286       H  0.66162509  0.66052856  0.15551003     0.28200
H2287       H  0.63887919  0.69490818  0.07448965     0.18800
H2288       H  0.78568476  0.73881412  0.14401109     0.18800
C2289       C  0.53108532  0.88368935  0.48346198    -0.07000
C2290       C  0.56703041  0.87500513  0.46667470    -0.18200
C2291       C  0.57487575  0.84367673  0.46091890     0.10200
C2292       C  0.54599421  0.81999945  0.47208608    -0.07000
C2293       C  0.51229848  0.82838793  0.49060977    -0.18200
C2294       C  0.00526765  0.86012603  0.49676284     0.10200
S2295       S  0.62191418  0.83574445  0.43871770    -0.33200
S2296       S  0.96310669  0.87031390  0.02158874    -0.33200
H2297       H  0.95195547  0.83945951  0.02985300     0.28200
H2298       H  0.63313218  0.80579014  0.45103444     0.28200
H2299       H  0.58846241  0.89287906  0.45715263     0.18800
H2300       H  0.99123123  0.81051009  0.99971112     0.18800
C2301       C  0.98655665  0.97901058  0.39509642    -0.07000
C2302       C  0.52510148  0.98861737  0.38045822    -0.18200
C2303       C  0.51866951  0.99174559  0.34852282     0.10200
C2304       C  0.97131611  0.98573068  0.32995821    -0.07000
C2305       C  0.93316481  0.97457811  0.34476990    -0.18200
C2306       C  0.93990891  0.97105218  0.37663426     0.10200
S2307       S  0.57192135  0.00414030  0.33246426    -0.33200
S2308       S  0.88807138  0.45467480  0.39233659    -0.33200
H2309       H  0.85112808  0.95740526  0.36605011     0.28200
H2310       H  0.60819341  0.00146191  0.35924160     0.28200
H2311       H  0.56092310  0.99442594  0.39430816     0.18800
H2312       H  0.89726943  0.46770645  0.33163638     0.18800
C2313       C  0.52807613  0.97303156  0.07982836    -0.07000
C2314       C  0.57259840  0.98401463  0.09800916    -0.18200
C2315       C  0.58005820  0.98321893  0.13009517     0.10200
C2316       C  0.54379646  0.96833916  0.14475908    -0.07000
C2317       C  0.49753991  0.96064770  0.12653253    -0.18200
C2318       C  0.48927975  0.96249394  0.09476164     0.10200
S2319       S  0.63188580  0.50636818  0.14975433    -0.33200
S2320       S  0.92878458  0.94939769  0.07526510    -0.33200
H2321       H  0.91662315  0.97913079  0.06243151     0.28200
H2322       H  0.60755469  0.51583431  0.17320011     0.28200
H2323       H  0.60114026  0.49459848  0.08725624     0.18800
H2324       H  0.96747045  0.95180407  0.13720906     0.18800
C2325       C  0.72968547  0.87305242  0.49048087    -0.07000
C2326       C  0.69462520  0.86353605  0.50806435    -0.18200
C2327       C  0.68595377  0.83222897  0.01428084     0.10200
C2328       C  0.71370173  0.80915309  0.50251763    -0.07000
C2329       C  0.74822454  0.81833497  0.48433754    -0.18200
C2330       C  0.75667979  0.85010464  0.47824679     0.10200
S2331       S  0.63995887  0.82400822  0.03760080    -0.33200
S2332       S  0.80100150  0.85958553  0.45421548    -0.33200
H2333       H  0.77413411  0.88458390  0.43893231     0.28200
H2334       H  0.62421406  0.79536638  0.02387729     0.28200
H2335       H  0.67282558  0.88072183  0.51707220     0.18800
H2336       H  0.76905712  0.80068773  0.47514551     0.18800
C2337       C  0.77320913  0.96338567  0.07793170    -0.07000
C2338       C  0.81532356  0.47985506  0.09276564    -0.18200
C2339       C  0.82678771  0.48210691  0.12464102     0.10200
C2340       C  0.79498395  0.96734990  0.14292978    -0.07000
C2341       C  0.75373946  0.94966159  0.12754146    -0.18200
C2342       C  0.74303357  0.94728866  0.09560027     0.10200
S2343       S  0.88022750  0.50640472  0.14053291    -0.33200
S2344       S  0.69048276  0.92318679  0.07875933    -0.33200
H2345       H  0.71461962  0.91125354  0.05630749     0.28200
H2346       H  0.90069992  0.50989823  0.11397574     0.28200
H2347       H  0.83807316  0.49245665  0.07911026     0.18800
H2348       H  0.72764602  0.93859063  0.13978748     0.18800
C2349       C  0.72011364  0.96343220  0.39425212    -0.07000
C2350       C  0.74453862  0.98459013  0.37759226    -0.18200
C2351       C  0.73908326  0.98247208  0.34569910     0.10200
C2352       C  0.71359055  0.95607638  0.33030978    -0.07000
C2353       C  0.68587335  0.93664041  0.34705841    -0.18200
C2354       C  0.68870299  0.94002142  0.37850252     0.10200
S2355       S  0.75777032  0.51691029  0.32672160    -0.33200
S2356       S  0.65277235  0.91287090  0.39725178    -0.33200
H2357       H  0.69013684  0.90821673  0.42304167     0.28200
H2358       H  0.71666827  0.51533637  0.30244789     0.28200
H2359       H  0.76655030  0.50368185  0.38934207     0.18800
H2360       H  0.66253700  0.91788054  0.33558113     0.18800
C2361       C  0.96923401  0.72305771  0.14096982    -0.07000
C2362       C  0.00727936  0.73374032  0.12611720    -0.18200
C2363       C  0.00330644  0.73153502  0.09420233     0.10200
C2364       C  0.95863866  0.71942300  0.07580723    -0.07000
C2365       C  0.92155607  0.70782104  0.09126126    -0.18200
C2366       C  0.92575490  0.70990189  0.12292023     0.10200
S2367       S  0.55809342  0.74129331  0.07888398    -0.33200
S2368       S  0.87570946  0.69239143  0.13861302    -0.33200
H2369       H  0.86445648  0.72061497  0.15134155     0.28200
H2370       H  0.58532821  0.75647992  0.10480341     0.28200
H2371       H  0.54127727  0.74265628  0.13987130     0.18800
H2372       H  0.88926068  0.69546082  0.07886661     0.18800
C2373       C  0.97882432  0.63368454  0.50396960    -0.07000
C2374       C  0.96651130  0.61116215  0.02458806    -0.18200
C2375       C  0.97551620  0.57948139  0.02140558     0.10200
C2376       C  0.99217099  0.56898030  0.49530180    -0.07000
C2377       C  0.00571999  0.59127787  0.47483090    -0.18200
C2378       C  0.00061165  0.62351534  0.47936256     0.10200
S2379       S  0.96942837  0.55354364  0.05274317    -0.33200
S2380       S  0.02605102  0.65010658  0.45440468    -0.33200
H2381       H  0.04382183  0.67204793  0.47743981     0.28200
H2382       H  0.01434693  0.53851982  0.05231940     0.28200
H2383       H  0.95062395  0.61805216  0.04395972     0.18800
H2384       H  0.02143053  0.58356968  0.45563858     0.18800
C2385       C  0.77205487  0.70342099  0.39055627    -0.07000
C2386       C  0.73297577  0.68572267  0.37293119    -0.18200
C2387       C  0.72422307  0.68599606  0.34107263     0.10200
C2388       C  0.75307144  0.70575335  0.32548583    -0.07000
C2389       C  0.78794355  0.72635033  0.34275119    -0.18200
C2390       C  0.79611423  0.72635419  0.37490658     0.10200
S2391       S  0.67888471  0.65826766  0.32196831    -0.33200
S2392       S  0.83275718  0.75840722  0.39385108    -0.33200
H2393       H  0.80650852  0.76059740  0.41792899     0.28200
H2394       H  0.64773987  0.68166312  0.30720845     0.28200
H2395       H  0.70918369  0.67074562  0.38392903     0.18800
H2396       H  0.80772014  0.74337424  0.33106738     0.18800
C2397       C  0.76837654  0.62443459  0.47395932    -0.07000
C2398       C  0.80540093  0.60877846  0.99455866    -0.18200
C2399       C  0.79960314  0.57687247  0.00077704     0.10200
C2400       C  0.75708326  0.56005572  0.48511480    -0.07000
C2401       C  0.71920522  0.57627900  0.46611159    -0.18200
C2402       C  0.72383972  0.60836333  0.46094673     0.10200
S2403       S  0.84552797  0.55914566  0.02968315    -0.33200
S2404       S  0.67178217  0.62733075  0.43738252    -0.33200
H2405       H  0.68092760  0.65679065  0.45144337     0.28200
H2406       H  0.81224594  0.53807636  0.04020387     0.28200
H2407       H  0.83902878  0.62118980  0.00521797     0.18800
H2408       H  0.68628681  0.56376481  0.45454096     0.18800
C2409       C  0.78500323  0.69710681  0.92528772     0.85600
C2410       C  0.75288964  0.71592436  0.94323378    -0.54700
C2411       C  0.76010416  0.70927371  0.97394056     0.08500
C2412       C  0.79920221  0.68389186  0.98374844     0.19500
C2413       C  0.83921214  0.70240430  0.94217974    -0.55400
C2414       C  0.84639009  0.69581466  0.97289365     0.08600
C2415       C  0.77512952  0.66263351  0.93286671    -0.54900
C2416       C  0.78055114  0.65600186  0.96310979     0.09200
H2417       H  0.72589654  0.73235981  0.93184568     0.13700
H2418       H  0.80608900  0.67729399  0.50820926    -0.00600
H2419       H  0.86943068  0.70976049  0.93100090     0.14000
H2420       H  0.76556189  0.64436742  0.91584859     0.13800
C2421       C  0.95315078  0.71088035  0.54163312     0.85600
C2422       C  0.97880118  0.73240963  0.52128798    -0.54700
C2423       C  0.97680048  0.72180588  0.99225654     0.08500
C2424       C  0.94533292  0.69126156  0.98537598     0.19500
C2425       C  0.89929290  0.70881378  0.52337864    -0.55400
C2426       C  0.89516397  0.69880227  0.99404513     0.08600
C2427       C  0.97416787  0.67836847  0.53890227    -0.54900
C2428       C  0.96920456  0.66728129  0.50981574     0.09200
H2429       H  0.49488856  0.75515988  0.52867997     0.13700
H2430       H  0.94116956  0.68239287  0.96174919    -0.00600
H2431       H  0.86721560  0.71617048  0.53231225     0.14000
H2432       H  0.99008756  0.66465845  0.55890439     0.13800
O2433       O  0.69763217  0.92408741  0.98552260    -0.75300
O2434       O  0.71110763  0.51274547  0.98556311    -0.75400
O2435       O  0.69205645  0.96836522  0.94165808    -0.75400
O2436       O  0.71766169  0.96759258  0.52971130    -0.75500
O2437       O  0.79865490  0.96365728  0.52989855    -0.75400
O2438       O  0.77336073  0.96474220  0.94249414    -0.75400
O2439       O  0.79234919  0.50899548  0.98643606    -0.75400
O2440       O  0.77858762  0.91933524  0.98607208    -0.75400
Ni2441     Ni  0.70161034  0.96840604  0.98557906     1.25400
Ni2442     Ni  0.78851141  0.96405473  0.98619415     1.25400
C2443       C  0.73562459  0.90705513  0.98640467     0.86800
C2444       C  0.75381152  0.52556583  0.98610162     0.86800
C2445       C  0.72868768  0.96605167  0.92772144     0.86800
C2446       C  0.76243733  0.96477840  0.54422313     0.87000
O2447       O  0.95966978  0.97464029  0.94301211    -0.75300
O2448       O  0.97939559  0.96999057  0.52960761    -0.75400
O2449       O  0.96060354  0.51685643  0.98862862    -0.75400
O2450       O  0.97954903  0.92802240  0.98496423    -0.75500
O2451       O  0.56035953  0.93670930  0.98811024    -0.75400
O2452       O  0.54201559  0.52507287  0.98990195    -0.75400
O2453       O  0.55951180  0.97922671  0.53305332    -0.75400
O2454       O  0.53992241  0.98200352  0.94478287    -0.75400
Ni2455     Ni  0.96723711  0.97217300  0.98634409     1.25400
Ni2456     Ni  0.55358093  0.98108774  0.98901891     1.25400
C2457       C  0.99630451  0.97844050  0.92932957     0.86800
C2458       C  0.52176531  0.97400202  0.54582187     0.86800
C2459       C  0.99840199  0.53548372  0.99051850     0.86800
C2460       C  0.52315449  0.91771689  0.98609217     0.87000
C2461       C  0.69963832  0.73085789  0.54272497     0.85600
C2462       C  0.71125218  0.76572950  0.53914858    -0.54700
C2463       C  0.70803861  0.77569889  0.50988791     0.08500
C2464       C  0.69268119  0.74979199  0.98605939     0.19500
C2465       C  0.64701204  0.72669457  0.52285761    -0.55400
C2466       C  0.64347728  0.73662383  0.99319146     0.08600
C2467       C  0.73376767  0.71380635  0.52499100    -0.54900
C2468       C  0.73063568  0.72352069  0.99526297     0.09200
H2469       H  0.72021270  0.78164534  0.55838969     0.13700
H2470       H  0.68912521  0.75884306  0.96238231    -0.00600
H2471       H  0.61435332  0.71878105  0.53133989     0.14000
H2472       H  0.75760635  0.69542500  0.53572324     0.13800
C2473       C  0.53660306  0.74581854  0.92346490     0.85600
C2474       C  0.53803467  0.78074072  0.93104113    -0.54700
C2475       C  0.54509380  0.78729974  0.96132929     0.08500
C2476       C  0.55202127  0.75798736  0.98189851     0.19500
C2477       C  0.58755516  0.73476983  0.94136354    -0.55400
C2478       C  0.59527982  0.74101154  0.97205384     0.08600
C2479       C  0.49815649  0.73062059  0.94036808    -0.54900
C2480       C  0.50605810  0.73674592  0.97095546     0.09200
H2481       H  0.53497747  0.79911879  0.91385746     0.13700
H2482       H  0.55927284  0.76350785  0.50650075    -0.00600
H2483       H  0.61609827  0.72461705  0.93085669     0.14000
H2484       H  0.96758748  0.71615167  0.92870801     0.13800
C2485       C  0.55013375  0.95864944  0.67846718     0.85600
C2486       C  0.52012275  0.97874569  0.69680987    -0.54700
C2487       C  0.52107207  0.96884458  0.72632048     0.08500
C2488       C  0.55383657  0.94010757  0.73493088     0.19500
C2489       C  0.60296785  0.95762833  0.69745473    -0.55400
C2490       C  0.60487467  0.94847065  0.72697662     0.08600
C2491       C  0.53094537  0.92481053  0.68187326    -0.54900
C2492       C  0.53142444  0.91535126  0.71126672     0.09200
H2493       H  0.99917581  0.99831610  0.68651138     0.13700
H2494       H  0.55645203  0.93181322  0.75872360    -0.00600
H2495       H  0.63657423  0.96111114  0.68843191     0.14000
H2496       H  0.51940257  0.90932166  0.66253159     0.13800
C2497       C  0.71106174  0.94770547  0.79652812     0.85600
C2498       C  0.74766179  0.96323730  0.77802554    -0.54700
C2499       C  0.74025696  0.95477644  0.74784311     0.08500
C2500       C  0.69844199  0.92950875  0.73958599     0.19500
C2501       C  0.65916572  0.95370268  0.77792078    -0.55400
C2502       C  0.65241241  0.94427529  0.74840192     0.08600
C2503       C  0.71911471  0.91246707  0.79258131    -0.54900
C2504       C  0.71225045  0.90259380  0.76296855     0.09200
H2505       H  0.77886532  0.97781709  0.78805229     0.13700
H2506       H  0.69129004  0.92125546  0.71565156    -0.00600
H2507       H  0.63010309  0.96469721  0.78739760     0.14000
H2508       H  0.72897566  0.89648502  0.81179870     0.13800
O2509       O  0.70333401  0.70346869  0.77540005    -0.75300
O2510       O  0.68415130  0.71012483  0.68803665    -0.75400
O2511       O  0.70155385  0.66229403  0.72889339    -0.75400
O2512       O  0.68588450  0.75125156  0.73511867    -0.75500
O2513       O  0.76725740  0.75884499  0.73770983    -0.75400
O2514       O  0.78311591  0.67025856  0.73249356    -0.75400
O2515       O  0.76563793  0.71718201  0.69156980    -0.75400
O2516       O  0.78460456  0.71174612  0.77900301    -0.75400
Ni2517     Ni  0.69078845  0.70653671  0.73171769     1.25400
Ni2518     Ni  0.77800544  0.71477123  0.73531944     1.25400
C2519       C  0.74684544  0.70688599  0.79166874     0.86800
C2520       C  0.72203532  0.71387480  0.67525944     0.86800
C2521       C  0.74503840  0.65180531  0.72913314     0.86800
C2522       C  0.72420398  0.76957114  0.73823610     0.87000
O2523       O  0.54100344  0.72517862  0.77888204    -0.75300
O2524       O  0.52185703  0.72486031  0.69091849    -0.75400
O2525       O  0.53455107  0.76997801  0.73479716    -0.75400
O2526       O  0.52923476  0.68030921  0.73550472    -0.75500
O2527       O  0.94754256  0.68182698  0.73393034    -0.75400
O2528       O  0.95174010  0.77124533  0.72999261    -0.75400
O2529       O  0.93994596  0.72477776  0.68840097    -0.75400
O2530       O  0.95871275  0.72825049  0.77540097    -0.75400
Ni2531     Ni  0.53467892  0.72509122  0.73509225     1.25400
Ni2532     Ni  0.94663260  0.72652945  0.73182253     1.25400
C2533       C  0.50285888  0.72718664  0.79151072     0.86800
C2534       C  0.97725474  0.72421031  0.67504856     0.86800
C2535       C  0.49438109  0.78538585  0.73215749     0.86800
C2536       C  0.98721724  0.66624905  0.73492262     0.87000
C2537       C  0.79823514  0.97653391  0.67674658     0.85600
C2538       C  0.77987776  0.50988878  0.67761831    -0.54700
C2539       C  0.78431677  0.52224008  0.70602646     0.08500
C2540       C  0.80393303  0.49866439  0.73176658     0.19500
C2541       C  0.85086524  0.97617922  0.69656693    -0.55400
C2542       C  0.85423091  0.98862295  0.72495683     0.08600
C2543       C  0.76642109  0.95802617  0.69629548    -0.54900
C2544       C  0.76919925  0.96922534  0.72539544     0.09200
H2545       H  0.76359960  0.52246765  0.65699660     0.13700
H2546       H  0.80731315  0.50882411  0.75486806    -0.00600
H2547       H  0.88287259  0.96680600  0.68892533     0.14000
H2548       H  0.74419095  0.93770088  0.68811527     0.13800
C2549       C  0.96138955  0.99267917  0.79517224     0.85600
C2550       C  0.97119337  0.52735695  0.78867223    -0.54700
C2551       C  0.96615026  0.53481537  0.75847213     0.08500
C2552       C  0.94985259  0.50708840  0.73688035     0.19500
C2553       C  0.90825706  0.98616969  0.77672701    -0.55400
C2554       C  0.90241560  0.99335206  0.74642053     0.08600
C2555       C  0.99497230  0.97458477  0.77756782    -0.54900
C2556       C  0.99008379  0.98235920  0.74712673     0.09200
H2557       H  0.98190743  0.54461570  0.80661400     0.13700
H2558       H  0.94406464  0.51390580  0.71242828    -0.00600
H2559       H  0.87721019  0.97632844  0.78564614     0.14000
H2560       H  0.52049990  0.95763538  0.78892441     0.13800
C2561       C  0.98453162  0.63164226  0.73645717    -0.07000
C2562       C  0.02505433  0.61527580  0.75268280    -0.18200
C2563       C  0.02133930  0.58304201  0.75803929     0.10200
C2564       C  0.97554009  0.56699492  0.74813293    -0.07000
C2565       C  0.93622103  0.58288868  0.73030564    -0.18200
C2566       C  0.94088745  0.61473390  0.72366183     0.10200
S2567       S  0.57656909  0.56356650  0.77685047    -0.33200
S2568       S  0.89111410  0.63260804  0.69774418    -0.33200
H2569       H  0.92381802  0.64914746  0.68223892     0.28200
H2570       H  0.06415142  0.53448789  0.76357128     0.28200
H2571       H  0.55970297  0.62761051  0.76162560     0.18800
H2572       H  0.90137906  0.57060870  0.72219947     0.18800
C2573       C  0.75184446  0.61833835  0.72336767    -0.07000
C2574       C  0.77268035  0.61115301  0.69802595    -0.18200
C2575       C  0.78440027  0.58048807  0.69200429     0.10200
C2576       C  0.77291933  0.55557671  0.71112774    -0.07000
C2577       C  0.74994324  0.56273988  0.73582101    -0.18200
C2578       C  0.73989897  0.59376910  0.74232037     0.10200
S2579       S  0.81681393  0.57579884  0.66067658    -0.33200
S2580       S  0.71361361  0.60052341  0.77564311    -0.33200
H2581       H  0.74084988  0.62845602  0.78364281     0.28200
H2582       H  0.85089099  0.55472864  0.67677706     0.28200
H2583       H  0.78125502  0.62992039  0.68314879     0.18800
H2584       H  0.74013979  0.54410080  0.75041044     0.18800
C2585       C  0.71470182  0.86862256  0.75520308    -0.07000
C2586       C  0.69020376  0.84634434  0.77098607    -0.18200
C2587       C  0.69388368  0.81408552  0.76634985     0.10200
C2588       C  0.71931144  0.80344023  0.74377672    -0.07000
C2589       C  0.74366400  0.82546384  0.72793753    -0.18200
C2590       C  0.74290843  0.85762154  0.73402875     0.10200
S2591       S  0.67083526  0.78741937  0.79230292    -0.33200
S2592       S  0.78320678  0.88256033  0.71646823    -0.33200
H2593       H  0.79858703  0.90130769  0.74245403     0.28200
H2594       H  0.71289260  0.76853496  0.79683147     0.28200
H2595       H  0.66974942  0.85406065  0.78804926     0.18800
H2596       H  0.76515130  0.81743260  0.71152541     0.18800
C2597       C  0.51504328  0.88351219  0.71938273    -0.07000
C2598       C  0.54273514  0.86826705  0.74488196    -0.18200
C2599       C  0.53229735  0.83713107  0.75156155     0.10200
C2600       C  0.49709666  0.81977708  0.73079286    -0.07000
C2601       C  0.96612861  0.83532688  0.70699749    -0.18200
C2602       C  0.97344094  0.86730799  0.70185714     0.10200
S2603       S  0.56216386  0.82154826  0.78791873    -0.33200
S2604       S  0.92756076  0.88628785  0.67352635    -0.33200
H2605       H  0.93247631  0.91556159  0.68815008     0.28200
H2606       H  0.52535401  0.79872561  0.79032538     0.28200
H2607       H  0.57307750  0.88033852  0.75963906     0.18800
H2608       H  0.93687499  0.82253161  0.69198606     0.18800
C2609       C  0.50895837  0.72935153  0.82500859    -0.07000
C2610       C  0.48336996  0.75267451  0.83689131    -0.18200
C2611       C  0.48849228  0.75704919  0.86833539     0.10200
C2612       C  0.52432943  0.73955172  0.88896770    -0.07000
C2613       C  0.54696872  0.71451872  0.87678564    -0.18200
C2614       C  0.53829291  0.70871571  0.84528339     0.10200
S2615       S  0.94694187  0.78542589  0.87899734    -0.33200
S2616       S  0.56101624  0.67288541  0.83269720    -0.33200
H2617       H  0.52275402  0.66860663  0.80710837     0.28200
H2618       H  0.44076816  0.77022396  0.90645065     0.28200
H2619       H  0.95835624  0.76742953  0.82123684     0.18800
H2620       H  0.56984355  0.69835457  0.89180519     0.18800
C2621       C  0.70779919  0.72180796  0.57680350    -0.07000
C2622       C  0.67097532  0.70559897  0.58935107    -0.18200
C2623       C  0.67522542  0.70140720  0.62105638     0.10200
C2624       C  0.71628584  0.71479768  0.64128092    -0.07000
C2625       C  0.75437542  0.72915092  0.62873291    -0.18200
C2626       C  0.75196912  0.73137623  0.59710542     0.10200
S2627       S  0.62792684  0.67766261  0.63388868    -0.33200
S2628       S  0.80595151  0.74679963  0.58335362    -0.33200
H2629       H  0.83142578  0.75915289  0.61123248     0.28200
H2630       H  0.66181136  0.66102897  0.65564436     0.28200
H2631       H  0.63896580  0.69530806  0.57467416     0.18800
H2632       H  0.78629255  0.73900717  0.64388620     0.18800
C2633       C  0.53168574  0.88380683  0.98349749    -0.07000
C2634       C  0.56724465  0.87502458  0.96647464    -0.18200
C2635       C  0.57490677  0.84366041  0.96075344     0.10200
C2636       C  0.54616400  0.82005057  0.97215909    -0.07000
C2637       C  0.51292998  0.82855291  0.99094824    -0.18200
C2638       C  0.00557402  0.86034564  0.99686169     0.10200
S2639       S  0.62158803  0.83560041  0.93832280    -0.33200
S2640       S  0.96281359  0.87003679  0.52151774    -0.33200
H2641       H  0.95055484  0.83914656  0.52905429     0.28200
H2642       H  0.63292497  0.80569519  0.95073295     0.28200
H2643       H  0.58851467  0.89284573  0.95675957     0.18800
H2644       H  0.99118986  0.81026186  0.49968332     0.18800
C2645       C  0.98713135  0.97912128  0.89509984    -0.07000
C2646       C  0.52553858  0.98804851  0.88028281    -0.18200
C2647       C  0.51881860  0.99119715  0.84833751     0.10200
C2648       C  0.97164744  0.98582435  0.82995474    -0.07000
C2649       C  0.93347681  0.97489483  0.84485005    -0.18200
C2650       C  0.94045121  0.97112561  0.87668957     0.10200
S2651       S  0.57216479  0.00305185  0.83215238    -0.33200
S2652       S  0.88662284  0.45724565  0.89254277    -0.33200
H2653       H  0.85553215  0.94918496  0.86518391     0.28200
H2654       H  0.60874319  0.99541650  0.85766429     0.28200
H2655       H  0.56171304  0.99336898  0.89395735     0.18800
H2656       H  0.89574717  0.47075520  0.83198132     0.18800
C2657       C  0.52731450  0.97311622  0.57977382    -0.07000
C2658       C  0.57171378  0.98435177  0.59791565    -0.18200
C2659       C  0.57919600  0.98363368  0.63000149     0.10200
C2660       C  0.54311661  0.96859691  0.64469109    -0.07000
C2661       C  0.49691319  0.96071676  0.62650117    -0.18200
C2662       C  0.48863179  0.96245240  0.59473123     0.10200
S2663       S  0.63055846  0.50719983  0.64979048    -0.33200
S2664       S  0.92849478  0.94937541  0.57525692    -0.33200
H2665       H  0.91647924  0.97916744  0.56252386     0.28200
H2666       H  0.60603540  0.51632639  0.67326587     0.28200
H2667       H  0.60005204  0.49540947  0.58723595     0.18800
H2668       H  0.96725905  0.95162051  0.63716534     0.18800
C2669       C  0.72887545  0.87302098  0.99016161    -0.07000
C2670       C  0.69375408  0.86351621  0.00770767    -0.18200
C2671       C  0.68662755  0.83224173  0.51447768     0.10200
C2672       C  0.71323275  0.80914098  0.00247175    -0.07000
C2673       C  0.74777900  0.81831737  0.98430982    -0.18200
C2674       C  0.75608754  0.85007115  0.97810121     0.10200
S2675       S  0.64051877  0.82399270  0.53771261    -0.33200
S2676       S  0.80059365  0.85953183  0.95418942    -0.33200
H2677       H  0.77363349  0.88440102  0.93871963     0.28200
H2678       H  0.62443741  0.79554599  0.52367082     0.28200
H2679       H  0.67186454  0.88071090  0.01663406     0.18800
H2680       H  0.76877691  0.80067566  0.97523940     0.18800
C2681       C  0.77351228  0.96363322  0.57803667    -0.07000
C2682       C  0.81508605  0.48003626  0.59280274    -0.18200
C2683       C  0.82662941  0.48229576  0.62466802     0.10200
C2684       C  0.79514175  0.96759469  0.64300966    -0.07000
C2685       C  0.75409473  0.94975685  0.62760866    -0.18200
C2686       C  0.74345111  0.94740279  0.59567792     0.10200
S2687       S  0.88013191  0.50656252  0.64046263    -0.33200
S2688       S  0.69119332  0.92308849  0.57880811    -0.33200
H2689       H  0.71567781  0.91122662  0.55649154     0.28200
H2690       H  0.90214465  0.50805607  0.61437436     0.28200
H2691       H  0.83786380  0.49262121  0.57914455     0.18800
H2692       H  0.72810342  0.93852527  0.63981875     0.18800
C2693       C  0.71984025  0.96374484  0.89414360    -0.07000
C2694       C  0.74453167  0.98482874  0.87756251    -0.18200
C2695       C  0.73907939  0.98279200  0.84566676     0.10200
C2696       C  0.71324905  0.95654021  0.83019774    -0.07000
C2697       C  0.68531622  0.93718872  0.84688092    -0.18200
C2698       C  0.68818407  0.94049619  0.87832724     0.10200
S2699       S  0.75769862  0.51729344  0.82674387    -0.33200
S2700       S  0.65201235  0.91344240  0.89700982    -0.33200
H2701       H  0.68952595  0.90842666  0.92264807     0.28200
H2702       H  0.71664858  0.51577778  0.80243330     0.28200
H2703       H  0.76648323  0.50393329  0.88934429     0.18800
H2704       H  0.66179602  0.91853596  0.83534907     0.18800
C2705       C  0.96910312  0.72286030  0.64095154    -0.07000
C2706       C  0.00713793  0.73358508  0.62611184    -0.18200
C2707       C  0.00321467  0.73137673  0.59419673     0.10200
C2708       C  0.95856563  0.71926009  0.57577693    -0.07000
C2709       C  0.92149280  0.70761684  0.59121689    -0.18200
C2710       C  0.92566813  0.70966498  0.62288063     0.10200
S2711       S  0.55809243  0.74182434  0.57887188    -0.33200
S2712       S  0.87567370  0.69203686  0.63853940    -0.33200
H2713       H  0.86441741  0.72016007  0.65143380     0.28200
H2714       H  0.58656086  0.75539552  0.60531257     0.28200
H2715       H  0.54119929  0.74303719  0.63991626     0.18800
H2716       H  0.88922750  0.69524326  0.57879965     0.18800
C2717       C  0.97901717  0.63389034  0.00397838    -0.07000
C2718       C  0.96584335  0.61094124  0.52440970    -0.18200
C2719       C  0.97465316  0.57923666  0.52116769     0.10200
C2720       C  0.99263042  0.56919736  0.99541483    -0.07000
C2721       C  0.00568685  0.59146250  0.97475695    -0.18200
C2722       C  0.00046652  0.62370036  0.97923216     0.10200
S2723       S  0.96784334  0.55321650  0.55230830    -0.33200
S2724       S  0.02533439  0.65025522  0.95399578    -0.33200
H2725       H  0.04335565  0.67226950  0.97691351     0.28200
H2726       H  0.01287871  0.53820566  0.55221515     0.28200
H2727       H  0.94973464  0.61784303  0.54369192     0.18800
H2728       H  0.02108867  0.58373132  0.95545187     0.18800
C2729       C  0.77225759  0.70362739  0.89060829    -0.07000
C2730       C  0.73332191  0.68588870  0.87290454    -0.18200
C2731       C  0.72459614  0.68629979  0.84104662     0.10200
C2732       C  0.75348150  0.70612441  0.82554242    -0.07000
C2733       C  0.78825054  0.72672095  0.84289248    -0.18200
C2734       C  0.79624755  0.72667402  0.87504628     0.10200
S2735       S  0.67902267  0.65878356  0.82181565    -0.33200
S2736       S  0.83246612  0.75883571  0.89410160    -0.33200
H2737       H  0.80592002  0.76089669  0.91805125     0.28200
H2738       H  0.64798320  0.68236849  0.80732414     0.28200
H2739       H  0.70955620  0.67082761  0.88384022     0.18800
H2740       H  0.80800689  0.74381748  0.83127724     0.18800
C2741       C  0.76903093  0.62441887  0.97387233    -0.07000
C2742       C  0.80439184  0.60886370  0.49495278    -0.18200
C2743       C  0.79846297  0.57698507  0.50122239     0.10200
C2744       C  0.75789869  0.56000317  0.98497370    -0.07000
C2745       C  0.71981992  0.57627360  0.96619200    -0.18200
C2746       C  0.72440920  0.60835916  0.96103246     0.10200
S2747       S  0.84373386  0.55938379  0.53060976    -0.33200
S2748       S  0.67219074  0.62735219  0.93766211    -0.33200
H2749       H  0.68134308  0.65675283  0.95184126     0.28200
H2750       H  0.81016328  0.53817423  0.54065733     0.28200
H2751       H  0.83787188  0.62129709  0.50581414     0.18800
H2752       H  0.68674745  0.56379543  0.95478920     0.18800
loop_ 
_geom_bond_atom_site_label_1 
_geom_bond_atom_site_label_2 
_geom_bond_distance 
_geom_bond_site_symmetry_2 
_ccdc_geom_bond_type 
C1            C2   1.539       .  S
C1            C7   1.537       .  S
C1            C5   1.548       .  S
C1          C321   1.541       .  S
C2            H9   1.083       .  S
C2            C3   1.372       .  D
C3            C4   1.543       .  S
C3           C60   1.498       .  S
C4            C8   1.530       .  S
C4            C6   1.540       .  S
C4          H354   1.105       .  S
C5           H11   1.084       .  S
C5            C6   1.372       .  D
C6           C18   1.488       .  S
C7           H12   1.086       .  S
C7            C8   1.354       .  D
C8          C333   1.474       .  S
H10         C348   1.105   1_554  S
C13          C14   1.535       .  S
C13          C19   1.529       .  S
C13          C17   1.547       .  S
C13         C300   1.543       .  S
C14        H1397   1.081       .  S
C14         C359   1.369   1_554  D
C15          C16   1.549       .  S
C15         C358   1.369       .  D
C15        C1448   1.490       .  S
C16          C18   1.539       .  S
C16         C364   1.544       .  S
C16          H22   1.106       .  S
C17          H23   1.085       .  S
C17         C362   1.367   1_554  D
C18         C361   1.367       .  D
C19          H24   1.087       .  S
C19          C20   1.364       .  D
C20         C360   1.545   1_554  S
C20         C653   1.499       .  S
H21        C1390   1.081       .  S
O25         Ni33   1.893       .  S
O25          C35   1.278       .  A
O26        Ni721   1.905   1_545  S
O26          C36   1.278       .  A
O27         Ni33   1.923       .  S
O27          C37   1.283       .  A
O28        Ni377   1.926   1_554  S
O28          C38   1.283       .  A
O29        Ni378   1.908   1_554  S
O29          C38   1.280       .  A
O30         Ni34   1.911       .  S
O30          C37   1.279       .  A
O31        Ni722   1.920   1_545  S
O31          C36   1.283       .  A
O32         Ni34   1.923       .  S
O32          C35   1.282       .  A
Ni33        O714   1.905       .  S
Ni33        O372   1.926       .  S
Ni33        Ni34   2.390       .  S
Ni34        O373   1.907       .  S
Ni34        O719   1.920       .  S
C35         C261   1.473       .  S
C36         C336   1.473       .  S
C37         C285   1.473       .  S
C38         C273   1.479       .  S
O39         Ni47   1.904       .  S
O39          C49   1.277       .  A
O40        Ni391   1.892   1_554  S
O40        C1426   1.274       .  A
O41        Ni735   1.925   1_545  S
O41          C51   1.283       .  A
O42         Ni47   1.927       .  S
O42        C1428   1.283       .  A
O43         Ni48   1.910       .  S
O43          C52   1.280       .  A
O44        Ni736   1.915   1_545  S
O44        C1427   1.278   1_455  A
O45        Ni392   1.935   1_554  S
O45          C50   1.286       .  A
O46         Ni48   1.933       .  S
O46        C1425   1.287   1_455  A
Ni47        O384   1.893       .  S
Ni47        O729   1.925       .  S
Ni47      Ni1424   2.383       .  S
Ni48        O732   1.915       .  S
Ni48        O389   1.935       .  S
Ni48      Ni1423   2.383   1_455  S
C49        O1422   1.287       .  A
C49         C237   1.496       .  S
C50        O1416   1.274   1_455  A
C50         C249   1.491       .  S
C51        O1420   1.278       .  A
C51         C312   1.475       .  S
C52        O1418   1.283   1_455  A
C52         C225   1.481       .  S
C53          C54   1.529       .  S
C53          C59   1.533       .  S
C53          C57   1.552       .  S
C53         C213   1.538       .  S
C54          H61   1.087       .  S
C54          C55   1.354       .  D
C55         C400   1.535   1_554  S
C55         C608   1.474       .  S
C56          C60   1.546       .  S
C56          C58   1.538       .  S
C56         C399   1.535       .  S
C56          H62   1.107       .  S
C57          H63   1.082       .  S
C57         C402   1.371   1_554  D
C58         C401   1.370       .  D
C58          C70   1.486       .  S
C59          H64   1.081       .  S
C59         C404   1.372   1_554  D
C60         C403   1.373       .  D
C65          C66   1.531       .  S
C65          C71   1.536   1_455  S
C65          C69   1.553       .  S
C65         C204   1.534       .  S
C66          H73   1.084       .  S
C66          C67   1.357       .  D
C67          C68   1.537       .  S
C67         C228   1.481       .  S
C68          C72   1.541       .  S
C68          C70   1.538       .  S
C68         H418   1.105       .  S
C69          H75   1.085       .  S
C69          C70   1.371       .  D
C71        H1452   1.084       .  S
C71          C72   1.365   1_655  D
C72        C1391   1.490   1_455  S
H74         C412   1.105   1_554  S
H76        C1447   1.084       .  S
C77          C78   1.543       .  S
C77          C83   1.543       .  S
C77          C81   1.535       .  S
C77         C252   1.537       .  S
C78        H1461   1.083   1_455  S
C78          C79   1.372       .  D
C79          C80   1.540       .  S
C79        C1524   1.503   1_455  S
C80          C84   1.534       .  S
C80          C82   1.541       .  S
C80          H86   1.103       .  S
C81          H87   1.080       .  S
C81          C82   1.359       .  D
C82          C94   1.477       .  S
C83          H88   1.085       .  S
C83          C84   1.364       .  D
C84         C189   1.485       .  S
H85        C1454   1.083       .  S
C89          C90   1.549       .  S
C89          C95   1.542       .  S
C89          C93   1.532       .  S
C89         C288   1.539       .  S
C90          H97   1.076       .  S
C90          C91   1.372       .  D
C91          C92   1.552       .  S
C91         C136   1.509       .  S
C92          C96   1.548       .  S
C92          C94   1.541       .  S
C92          H98   1.106       .  S
C93          H99   1.087       .  S
C93          C94   1.356       .  D
C95         H100   1.086       .  S
C95          C96   1.365       .  D
C96         C177   1.500       .  S
O101       Ni109   1.913       .  S
O101        C111   1.280       .  A
O102       Ni109   1.923       .  S
O102        C112   1.282       .  A
O103       Ni109   1.928       .  S
O103        C113   1.282       .  A
O104       Ni109   1.927       .  S
O104        C114   1.284       .  A
O105       Ni110   1.918       .  S
O105        C114   1.280       .  A
O106       Ni110   1.916       .  S
O106        C113   1.281       .  A
O107       Ni110   1.915       .  S
O107        C112   1.283       .  A
O108       Ni110   1.921       .  S
O108        C111   1.281       .  A
Ni109      Ni110   2.386       .  S
C111        C324   1.484       .  S
C112        C216   1.491       .  S
C113        C165   1.477       .  S
C114        C180   1.483       .  S
O115       Ni123   1.924       .  S
O115        C125   1.282       .  A
O116       Ni123   1.931       .  S
O116       C1502   1.285   1_455  A
O117       Ni123   1.917       .  S
O117        C127   1.282   1_455  A
O118       Ni123   1.915       .  S
O118       C1504   1.280   1_455  A
O119       Ni124   1.911       .  S
O119        C128   1.282       .  A
O120       Ni124   1.913       .  S
O120       C1503   1.279       .  A
O121       Ni124   1.908       .  S
O121        C126   1.277       .  A
O122       Ni124   1.907       .  S
O122       C1501   1.279       .  A
Ni123     Ni1500   2.387   1_455  S
Ni124     Ni1499   2.387       .  S
C125       O1498   1.279   1_455  A
C125        C201   1.472       .  S
C126       O1492   1.285       .  A
C126        C297   1.493       .  S
C127       O1496   1.279       .  A
C127        C192   1.470       .  S
C128       O1494   1.280       .  A
C128        C153   1.480       .  S
C129        C135   1.545       .  S
C129        C133   1.545       .  S
C129        C818   1.526       .  S
C129        C276   1.540       .  S
C130        C817   1.526   1_545  S
C130        H137   1.085       .  S
C130        C131   1.358       .  D
C131        C132   1.544   1_545  S
C131        C168   1.493       .  S
C132        C824   1.557       .  S
C132        C822   1.540       .  S
C132        H138   1.107   1_565  S
C133        H139   1.085       .  S
C133        C134   1.362       .  D
C134        C820   1.540       .  S
C134        C146   1.489       .  S
C135        H140   1.076       .  S
C135        C136   1.373       .  D
C136        C820   1.557       .  S
C141        C147   1.541       .  S
C141        C145   1.553       .  S
C141        C830   1.534       .  S
C141        C240   1.547       .  S
C142        C829   1.534   1_545  S
C142        H149   1.087       .  S
C142        C143   1.361       .  D
C143        C144   1.538       .  S
C143        C156   1.479       .  S
C144        C836   1.545   1_545  S
C144        C834   1.543   1_545  S
C144        H150   1.107       .  S
C145        H151   1.081       .  S
C145        C146   1.361       .  D
C146        C832   1.543       .  S
C147       H1528   1.082       .  S
C147        C148   1.374       .  D
C148        C832   1.544       .  S
C148       C1455   1.502       .  S
H152       C1523   1.082   1_455  S
C153        C154   1.402       .  A
C153        C158   1.411       .  A
C154        C155   1.400       .  A
C154       H1539   1.084       .  S
C155        C156   1.415       .  A
C155       S1535   1.801       .  S
C156        C157   1.398       .  A
C157        C158   1.398       .  A
C157        H164   1.082       .  S
C158        S160   1.793       .  S
S159       C1531   1.802       .  S
S159       H1538   1.406       .  S
S160        H161   1.406       .  S
H162       S1535   1.406       .  S
H163       C1530   1.084       .  S
C165        C166   1.397       .  A
C165        C170   1.411       .  A
C166        C167   1.396       .  A
C166        H175   1.085       .  S
C167        C168   1.422       .  A
C167        S171   1.804       .  S
C168        C169   1.406       .  A
C169        C170   1.403       .  A
C169        H176   1.083       .  S
C170        S172   1.796       .  S
S171        H174   1.403       .  S
S172        H173   1.406       .  S
C177        C178   1.410       .  A
C177        C182   1.417       .  A
C178        C179   1.403       .  A
C178        H187   1.084       .  S
C179        C180   1.411       .  A
C179        S183   1.802       .  S
C180        C181   1.402       .  A
C181        C182   1.404       .  A
C181        H188   1.084       .  S
C182        S184   1.796       .  S
S183        H186   1.404       .  S
S184        H185   1.406       .  S
C189        C190   1.404       .  A
C189       C1570   1.419   1_455  A
C190        C191   1.395       .  A
C190        H199   1.082       .  S
C191        C192   1.408   1_455  A
C191        S195   1.799       .  S
C192       C1569   1.400       .  A
C193        C194   1.399       .  A
C193       C1568   1.400       .  A
C193        H200   1.084       .  S
C194       C1565   1.419       .  A
C194        S196   1.805       .  S
S195        H198   1.406       .  S
S196        H197   1.407       .  S
C201        C202   1.395   1_455  A
C201        C206   1.408       .  A
C202        C203   1.394       .  A
C202       H1587   1.085       .  S
C203        C204   1.431   1_655  A
C203       S1583   1.808       .  S
C204        C205   1.411       .  A
C205        C206   1.402       .  A
C205        H212   1.081       .  S
C206        S208   1.799       .  S
S207       C1579   1.808       .  S
S207       H1586   1.400       .  S
S208        H209   1.406       .  S
H210       S1583   1.400       .  S
H211       C1578   1.085       .  S
C213        C214   1.409       .  A
C213        C218   1.423       .  A
C214        C215   1.404       .  A
C214        H223   1.079       .  S
C215        C216   1.416       .  A
C215        S219   1.802       .  S
C216        C217   1.401       .  A
C217        C218   1.399       .  A
C217        H224   1.080       .  S
C218        S220   1.814       .  S
S219        H222   1.408       .  S
S220        H221   1.406       .  S
C225        C226   1.403       .  A
C225       C1606   1.414       .  A
C226        C227   1.394       .  A
C226        H235   1.084       .  S
C227        C228   1.414       .  A
C227        S231   1.806       .  S
C228        C229   1.404       .  A
C229       C1606   1.408       .  A
C229       H1956   1.083   1_455  S
C230       C1601   1.414       .  A
C230       C1605   1.408       .  A
C230        S576   1.807       .  S
S231        H234   1.404       .  S
S232        C574   1.807   1_554  S
S232        H233   1.407       .  S
H236       C1949   1.083       .  S
C237        C242   1.420       .  A
C237       C1614   1.403       .  A
C238        C239   1.405       .  A
C238       C1613   1.403   1_455  A
C238        H247   1.082       .  S
C239       C1616   1.425   1_455  A
C239        S243   1.811       .  S
C240        C241   1.410       .  A
C240       C1615   1.425       .  A
C241        C242   1.403       .  A
C241        H936   1.072       .  S
C242        S932   1.815       .  S
S243        H246   1.407       .  S
S244        C930   1.815       .  S
S244        H933   1.407       .  S
H245        S932   1.407       .  S
H248        C929   1.073       .  S
C249        C250   1.406       .  A
C249        C254   1.420   1_455  A
C250        C251   1.404       .  A
C250        H947   1.084       .  S
C251        C252   1.424       .  A
C251        S943   1.803       .  S
C252        C253   1.406   1_455  A
C253        C254   1.391       .  A
C253       H1636   1.085       .  S
C254       S1632   1.803       .  S
S255        C939   1.804   1_545  S
S255        H258   1.407       .  S
S256       C1630   1.803       .  S
S256        H257   1.408       .  S
H259        C938   1.084       .  S
H260       C1629   1.085       .  S
C261        C262   1.401       .  A
C261        C266   1.414       .  A
C262        C607   1.385       .  A
C262        H271   1.083       .  S
C263        C606   1.385       .  A
C263        C608   1.414       .  A
C263        S267   1.806       .  S
C264        C399   1.474       .  S
C264        C265   1.404       .  A
C264        C607   1.414       .  A
C265        C266   1.404       .  A
C265        H272   1.084       .  S
C266        S268   1.802       .  S
S267        H270   1.396       .  S
S268        H269   1.406       .  S
C273        C278   1.409       .  A
C273        C962   1.395       .  A
C274        C275   1.398       .  A
C274        C961   1.395       .  A
C274        H283   1.082       .  S
C275        C964   1.430       .  A
C275        S279   1.812   1_565  S
C276        C277   1.414       .  A
C276        C963   1.430       .  A
C277        C278   1.401       .  A
C277        H284   1.077       .  S
C278        S280   1.800       .  S
S279        H282   1.407       .  S
S280        H281   1.404       .  S
C285        C286   1.401       .  A
C285        C290   1.408       .  A
C286        C287   1.403       .  A
C286        H983   1.084       .  S
C287        C288   1.424       .  A
C287        S979   1.801       .  S
C288        C289   1.413       .  A
C289        C290   1.396       .  A
C289        H296   1.084       .  S
C290        S292   1.804       .  S
S291        C975   1.801   1_545  S
S291        H294   1.408       .  S
S292        H293   1.404       .  S
H295        C974   1.084   1_545  S
C297        C298   1.403       .  A
C297        C302   1.415       .  A
C298        C299   1.408       .  A
C298       H1683   1.082       .  S
C299        C300   1.429       .  A
C299       S1679   1.807       .  S
C300        C301   1.410       .  A
C301        C302   1.396       .  A
C301        H308   1.081       .  S
C302        S304   1.799       .  S
S303       C1675   1.807       .  S
S303        H306   1.407       .  S
S304        H305   1.402       .  S
H307       C1674   1.082       .  S
C309        C364   1.499       .  S
C309        C314   1.419       .  A
C309        C654   1.410       .  A
C310        C311   1.394       .  A
C310        C653   1.410       .  A
C310        H319   1.083       .  S
C311        C656   1.406   1_554  A
C311        S315   1.803       .  S
C312        C313   1.404       .  A
C312        C655   1.406       .  A
C313        C314   1.407       .  A
C313        H320   1.084       .  S
C314        S316   1.801       .  S
S315        H318   1.405       .  S
S316        H317   1.406       .  S
C321        C322   1.412       .  A
C321        C326   1.418       .  A
C322        C323   1.393       .  A
C322        H331   1.082       .  S
C323        C324   1.409       .  A
C323        S327   1.797       .  S
C324        C325   1.407       .  A
C325        C326   1.406       .  A
C325        H332   1.084       .  S
C326        S328   1.799       .  S
S327        H330   1.405       .  S
S328        H329   1.404       .  S
C333        C338   1.415       .  A
C333        C678   1.400       .  A
C334        C335   1.399   1_556  A
C334        C677   1.400       .  A
C334        H343   1.084   1_556  S
C335        C680   1.412   1_554  A
C335        S339   1.797       .  S
C336        C337   1.402       .  A
C336        C679   1.411       .  A
C337        C338   1.394       .  A
C337        H344   1.084       .  S
C338        S340   1.807       .  S
S339        H342   1.407       .  S
S340        H341   1.407       .  S
C345        C346   1.539       .  S
C345        C351   1.537       .  S
C345        C349   1.548       .  S
C345        C665   1.542       .  S
C346        H353   1.083       .  S
C346        C347   1.372       .  D
C347        C348   1.543       .  S
C347        C404   1.499       .  S
C348        C352   1.530       .  S
C348        C350   1.540       .  S
C349        H355   1.084       .  S
C349        C350   1.372       .  D
C350        C362   1.488       .  S
C351        H356   1.086       .  S
C351        C352   1.354       .  D
C352        C677   1.474       .  S
C357        C358   1.535       .  S
C357        C363   1.530       .  S
C357        C361   1.547       .  S
C357        C644   1.544       .  S
C358       H1741   1.081       .  S
C359        C360   1.549       .  S
C359       C1792   1.490       .  S
C360        C362   1.540       .  S
C360        H366   1.106       .  S
C361        H367   1.085       .  S
C363        H368   1.087       .  S
C363        C364   1.365       .  D
H365       C1734   1.081       .  S
O369       Ni377   1.893       .  S
O369        C379   1.278       .  A
O370      Ni1065   1.905   1_545  S
O370        C380   1.278       .  A
O371       Ni377   1.923       .  S
O371        C381   1.283       .  A
O372        C382   1.283       .  A
O373        C382   1.280       .  A
O374       Ni378   1.911       .  S
O374        C381   1.279       .  A
O375      Ni1066   1.920   1_545  S
O375        C380   1.283       .  A
O376       Ni378   1.923       .  S
O376        C379   1.282       .  A
Ni377      O1058   1.905       .  S
Ni377      Ni378   2.390       .  S
Ni378      O1063   1.920       .  S
C379        C605   1.473       .  S
C380        C680   1.473       .  S
C381        C629   1.472       .  S
C382        C617   1.479       .  S
O383       Ni391   1.903       .  S
O383        C393   1.276       .  A
O384       C1770   1.274       .  A
O385      Ni1079   1.925   1_545  S
O385        C395   1.283       .  A
O386       Ni391   1.926       .  S
O386       C1772   1.283       .  A
O387       Ni392   1.909       .  S
O387        C396   1.280       .  A
O388      Ni1080   1.916   1_545  S
O388       C1771   1.278   1_455  A
O389        C394   1.286       .  A
O390       Ni392   1.933       .  S
O390       C1769   1.287   1_455  A
Ni391      O1073   1.925       .  S
Ni391     Ni1768   2.383       .  S
Ni392      O1076   1.915       .  S
Ni392     Ni1767   2.383   1_455  S
C393       O1766   1.287       .  A
C393        C581   1.497       .  S
C394       O1760   1.274   1_455  A
C394        C593   1.491       .  S
C395       O1764   1.278       .  A
C395        C656   1.475       .  S
C396       O1762   1.283   1_455  A
C396        C569   1.481       .  S
C397        C398   1.529       .  S
C397        C403   1.533       .  S
C397        C401   1.552       .  S
C397        C557   1.538       .  S
C398        H405   1.087       .  S
C398        C399   1.354       .  D
C400        C404   1.547       .  S
C400        C402   1.538       .  S
C400        H406   1.107       .  S
C401        H407   1.082       .  S
C402        C414   1.486       .  S
C403        H408   1.081       .  S
C409        C410   1.530       .  S
C409        C415   1.536   1_455  S
C409        C413   1.553       .  S
C409        C548   1.534       .  S
C410        H417   1.084       .  S
C410        C411   1.357       .  D
C411        C412   1.537       .  S
C411        C572   1.481       .  S
C412        C416   1.541       .  S
C412        C414   1.538       .  S
C413        H419   1.085       .  S
C413        C414   1.371       .  D
C415       H1796   1.084       .  S
C415        C416   1.365   1_655  D
C416       C1735   1.490   1_455  S
H420       C1791   1.084       .  S
C421        C422   1.543       .  S
C421        C427   1.542       .  S
C421        C425   1.536       .  S
C421        C596   1.537       .  S
C422       H1805   1.083   1_455  S
C422        C423   1.372       .  D
C423        C424   1.539       .  S
C423       C1868   1.502   1_455  S
C424        C428   1.534       .  S
C424        C426   1.541       .  S
C424        H430   1.103       .  S
C425        H431   1.080       .  S
C425        C426   1.359       .  D
C426        C438   1.477       .  S
C427        H432   1.085       .  S
C427        C428   1.363       .  D
C428        C533   1.485       .  S
H429       C1798   1.083       .  S
C433        C434   1.549       .  S
C433        C439   1.542       .  S
C433        C437   1.532       .  S
C433        C632   1.539       .  S
C434        H441   1.076       .  S
C434        C435   1.371       .  D
C435        C436   1.552       .  S
C435        C480   1.508       .  S
C436        C440   1.547       .  S
C436        C438   1.540       .  S
C436        H442   1.106       .  S
C437        H443   1.087       .  S
C437        C438   1.356       .  D
C439        H444   1.086       .  S
C439        C440   1.365       .  D
C440        C521   1.500       .  S
O445       Ni453   1.914       .  S
O445        C455   1.281       .  A
O446       Ni453   1.924       .  S
O446        C456   1.282       .  A
O447       Ni453   1.927       .  S
O447        C457   1.281       .  A
O448       Ni453   1.926       .  S
O448        C458   1.283       .  A
O449       Ni454   1.918       .  S
O449        C458   1.280       .  A
O450       Ni454   1.916       .  S
O450        C457   1.281       .  A
O451       Ni454   1.915       .  S
O451        C456   1.282       .  A
O452       Ni454   1.922       .  S
O452        C455   1.281       .  A
Ni453      Ni454   2.386       .  S
C455        C668   1.485       .  S
C456        C560   1.491       .  S
C457        C509   1.476       .  S
C458        C524   1.482       .  S
O459       Ni467   1.924       .  S
O459        C469   1.283       .  A
O460       Ni467   1.932       .  S
O460       C1846   1.285   1_455  A
O461       Ni467   1.916       .  S
O461        C471   1.282   1_455  A
O462       Ni467   1.914       .  S
O462       C1848   1.280   1_455  A
O463       Ni468   1.910       .  S
O463        C472   1.281       .  A
O464       Ni468   1.913       .  S
O464       C1847   1.279       .  A
O465       Ni468   1.909       .  S
O465        C470   1.278       .  A
O466       Ni468   1.907       .  S
O466       C1845   1.279       .  A
Ni467     Ni1844   2.387   1_455  S
Ni468     Ni1843   2.387       .  S
C469       O1842   1.279   1_455  A
C469        C545   1.472       .  S
C470       O1836   1.285       .  A
C470        C641   1.493       .  S
C471       O1840   1.279       .  A
C471        C536   1.469       .  S
C472       O1838   1.280       .  A
C472        C497   1.481       .  S
C473       C1162   1.525       .  S
C473        C479   1.545       .  S
C473        C477   1.544       .  S
C473        C620   1.539       .  S
C474       C1161   1.525   1_545  S
C474        H481   1.085       .  S
C474        C475   1.358       .  D
C475        C476   1.544   1_545  S
C475        C512   1.493       .  S
C476       C1168   1.557       .  S
C476       C1166   1.540       .  S
C476        H482   1.107   1_565  S
C477        H483   1.085       .  S
C477        C478   1.362       .  D
C478       C1164   1.540       .  S
C478        C490   1.489       .  S
C479        H484   1.076       .  S
C479        C480   1.373       .  D
C480       C1164   1.557       .  S
C485       C1174   1.533       .  S
C485        C491   1.541       .  S
C485        C489   1.552       .  S
C485        C584   1.546       .  S
C486       C1173   1.533   1_545  S
C486        H493   1.087       .  S
C486        C487   1.361       .  D
C487        C488   1.537       .  S
C487        C500   1.478       .  S
C488       C1180   1.544   1_545  S
C488       C1178   1.543   1_545  S
C488        H494   1.107       .  S
C489        H495   1.081       .  S
C489        C490   1.361       .  D
C490       C1176   1.543       .  S
C491       H1872   1.082       .  S
C491        C492   1.374       .  D
C492       C1176   1.544       .  S
C492       C1799   1.502       .  S
H496       C1867   1.082   1_455  S
C497        C498   1.403       .  A
C497        C502   1.412       .  A
C498        C499   1.400       .  A
C498       H1883   1.084       .  S
C499        C500   1.415       .  A
C499       S1879   1.802       .  S
C500        C501   1.397       .  A
C501        C502   1.397       .  A
C501        H508   1.082       .  S
C502        S504   1.792       .  S
S503       C1875   1.802       .  S
S503       H1882   1.406       .  S
S504        H505   1.406       .  S
H506       S1879   1.406       .  S
H507       C1874   1.084       .  S
C509        C510   1.397       .  A
C509        C514   1.411       .  A
C510        C511   1.396       .  A
C510        H519   1.084       .  S
C511        C512   1.422       .  A
C511        S515   1.805       .  S
C512        C513   1.406       .  A
C513        C514   1.403       .  A
C513        H520   1.083       .  S
C514        S516   1.796       .  S
S515        H518   1.403       .  S
S516        H517   1.406       .  S
C521        C522   1.409       .  A
C521        C526   1.417       .  A
C522        C523   1.403       .  A
C522        H531   1.084       .  S
C523        C524   1.411       .  A
C523        S527   1.802       .  S
C524        C525   1.401       .  A
C525        C526   1.403       .  A
C525        H532   1.084       .  S
C526        S528   1.796       .  S
S527        H530   1.404       .  S
S528        H529   1.406       .  S
C533        C534   1.404       .  A
C533       C1914   1.419   1_455  A
C534        C535   1.395       .  A
C534        H543   1.082       .  S
C535        C536   1.408   1_455  A
C535        S539   1.799       .  S
C536       C1913   1.400       .  A
C537       C1912   1.400       .  A
C537        C538   1.399       .  A
C537        H544   1.084       .  S
C538       C1909   1.419       .  A
C538        S540   1.805       .  S
S539        H542   1.406       .  S
S540        H541   1.407       .  S
C545        C546   1.395   1_455  A
C545        C550   1.407       .  A
C546        C547   1.394       .  A
C546       H1931   1.085       .  S
C547        C548   1.431   1_655  A
C547       S1927   1.808       .  S
C548        C549   1.411       .  A
C549        C550   1.401       .  A
C549        H556   1.081       .  S
C550        S552   1.799       .  S
S551       C1923   1.808       .  S
S551       H1930   1.400       .  S
S552        H553   1.406       .  S
H554       S1927   1.400       .  S
H555       C1922   1.085       .  S
C557        C558   1.409       .  A
C557        C562   1.423       .  A
C558        C559   1.404       .  A
C558        H567   1.079       .  S
C559        C560   1.416       .  A
C559        S563   1.802       .  S
C560        C561   1.402       .  A
C561        C562   1.400       .  A
C561        H568   1.080       .  S
C562        S564   1.814       .  S
S563        H566   1.408       .  S
S564        H565   1.406       .  S
C569        C570   1.403       .  A
C569       C1950   1.414       .  A
C570        C571   1.393       .  A
C570        H579   1.084       .  S
C571        C572   1.414       .  A
C571        S575   1.806       .  S
C572        C573   1.404       .  A
C573       C1950   1.408       .  A
C573       H1612   1.083   1_455  S
C574       C1945   1.414       .  A
C574       C1949   1.408       .  A
S575        H578   1.404       .  S
S576        H577   1.407       .  S
H580       C1605   1.083       .  S
C581       C1958   1.404       .  A
C581        C586   1.421       .  A
C582       C1957   1.404   1_455  A
C582        C583   1.404       .  A
C582        H591   1.083       .  S
C583       C1960   1.425   1_455  A
C583        S587   1.809       .  S
C584       C1959   1.425       .  A
C584        C585   1.410       .  A
C585        C586   1.402       .  A
C585       H1280   1.072       .  S
C586       S1276   1.815       .  S
S587        H590   1.407       .  S
S588       C1274   1.815       .  S
S588       H1277   1.407       .  S
H589       S1276   1.407       .  S
H592       C1273   1.073       .  S
C593        C594   1.406       .  A
C593        C598   1.420   1_455  A
C594        C595   1.404       .  A
C594       H1291   1.084       .  S
C595        C596   1.424       .  A
C595       S1287   1.803       .  S
C596        C597   1.406   1_455  A
C597        C598   1.391       .  A
C597       H1980   1.085       .  S
C598       S1976   1.803       .  S
S599       C1283   1.804   1_545  S
S599        H602   1.407       .  S
S600       C1974   1.803       .  S
S600        H601   1.408       .  S
H603       C1282   1.084       .  S
H604       C1973   1.085       .  S
C605        C606   1.401   1_556  A
C605        C610   1.414       .  A
C606        H615   1.083       .  S
C607        S611   1.806       .  S
C608        C609   1.404   1_554  A
C609        C610   1.404       .  A
C609        H616   1.084       .  S
C610        S612   1.802       .  S
S611        H614   1.396       .  S
S612        H613   1.406       .  S
C617       C1306   1.395       .  A
C617        C622   1.409       .  A
C618       C1305   1.395       .  A
C618        C619   1.398       .  A
C618        H627   1.082       .  S
C619       C1308   1.430       .  A
C619        S623   1.812   1_565  S
C620       C1307   1.430       .  A
C620        C621   1.414       .  A
C621        C622   1.400       .  A
C621        H628   1.077       .  S
C622        S624   1.800       .  S
S623        H626   1.407       .  S
S624        H625   1.404       .  S
C629        C630   1.401       .  A
C629        C634   1.408       .  A
C630        C631   1.403       .  A
C630       H1327   1.084       .  S
C631        C632   1.424       .  A
C631       S1323   1.801       .  S
C632        C633   1.413       .  A
C633        C634   1.396       .  A
C633        H640   1.084       .  S
C634        S636   1.804       .  S
S635       C1319   1.801   1_545  S
S635        H638   1.408       .  S
S636        H637   1.403       .  S
H639       C1318   1.084   1_545  S
C641        C642   1.403       .  A
C641        C646   1.415       .  A
C642        C643   1.409       .  A
C642       H2027   1.082       .  S
C643        C644   1.429       .  A
C643       S2023   1.808       .  S
C644        C645   1.410       .  A
C645        C646   1.396       .  A
C645        H652   1.081       .  S
C646        S648   1.799       .  S
S647       C2019   1.808       .  S
S647        H650   1.406       .  S
S648        H649   1.401       .  S
H651       C2018   1.082       .  S
C653        C658   1.419   1_554  A
C654        C655   1.394       .  A
C654        H663   1.083       .  S
C655        S659   1.803       .  S
C656        C657   1.404       .  A
C657        C658   1.407       .  A
C657        H664   1.084       .  S
C658        S660   1.801       .  S
S659        H662   1.405       .  S
S660        H661   1.406       .  S
C665        C666   1.412       .  A
C665        C670   1.418       .  A
C666        C667   1.393       .  A
C666        H675   1.082       .  S
C667        C668   1.409       .  A
C667        S671   1.797       .  S
C668        C669   1.407       .  A
C669        C670   1.407       .  A
C669        H676   1.084       .  S
C670        S672   1.799       .  S
S671        H674   1.405       .  S
S672        H673   1.404       .  S
C677        C682   1.415       .  A
C678        C679   1.399       .  A
C678        H687   1.084       .  S
C679        S683   1.797       .  S
C680        C681   1.402       .  A
C681        C682   1.394       .  A
C681        H688   1.084       .  S
C682        S684   1.807       .  S
S683        H686   1.407       .  S
S684        H685   1.407       .  S
C689        C690   1.539       .  S
C689        C695   1.537       .  S
C689        C693   1.548       .  S
C689       C1009   1.542       .  S
C690        H697   1.083       .  S
C690        C691   1.372       .  D
C691        C692   1.543       .  S
C691        C748   1.499       .  S
C692        C696   1.530       .  S
C692        C694   1.540       .  S
C692       H1042   1.105       .  S
C693        H699   1.084       .  S
C693        C694   1.372       .  D
C694        C706   1.488       .  S
C695        H700   1.086       .  S
C695        C696   1.354       .  D
C696       C1021   1.475       .  S
H698       C1036   1.105   1_554  S
C701        C702   1.535       .  S
C701        C707   1.530       .  S
C701        C705   1.547       .  S
C701        C988   1.543       .  S
C702       H2085   1.081       .  S
C702       C1047   1.369   1_554  D
C703        C704   1.549       .  S
C703       C1046   1.369       .  D
C703       C2136   1.490       .  S
C704       C1052   1.544       .  S
C704        C706   1.539       .  S
C704        H710   1.106       .  S
C705        H711   1.085       .  S
C705       C1050   1.367   1_554  D
C706       C1049   1.367       .  D
C707        H712   1.087       .  S
C707        C708   1.364       .  D
C708       C1048   1.545   1_554  S
C708       C1341   1.499       .  S
H709       C2078   1.081       .  S
O713       Ni721   1.893       .  S
O713        C723   1.278       .  A
O714        C724   1.278       .  A
O715       Ni721   1.923       .  S
O715        C725   1.283       .  A
O716      Ni1065   1.926   1_554  S
O716        C726   1.283       .  A
O717      Ni1066   1.908   1_554  S
O717        C726   1.280       .  A
O718       Ni722   1.911       .  S
O718        C725   1.279       .  A
O719        C724   1.283       .  A
O720       Ni722   1.923       .  S
O720        C723   1.282       .  A
Ni721      O1060   1.926       .  S
Ni721      Ni722   2.390       .  S
Ni722      O1061   1.907       .  S
C723        C949   1.473       .  S
C724       C1024   1.473       .  S
C725        C973   1.472       .  S
C726        C961   1.479       .  S
O727       Ni735   1.904       .  S
O727        C737   1.277       .  A
O728      Ni1079   1.892   1_554  S
O728       C2114   1.274       .  A
O729        C739   1.284       .  A
O730       Ni735   1.927       .  S
O730       C2116   1.283       .  A
O731       Ni736   1.910       .  S
O731        C740   1.280       .  A
O732       C2115   1.278   1_455  A
O733      Ni1080   1.936   1_554  S
O733        C738   1.287       .  A
O734       Ni736   1.934       .  S
O734       C2113   1.287   1_455  A
Ni735      O1072   1.893       .  S
Ni735     Ni2112   2.383       .  S
Ni736      O1077   1.936       .  S
Ni736     Ni2111   2.383   1_455  S
C737       O2110   1.286       .  A
C737        C925   1.497       .  S
C738       O2104   1.274   1_455  A
C738        C937   1.491       .  S
C739       O2108   1.278       .  A
C739       C1000   1.476       .  S
C740       O2106   1.283   1_455  A
C740        C913   1.481       .  S
C741        C742   1.529       .  S
C741        C747   1.533       .  S
C741        C745   1.552       .  S
C741        C901   1.538       .  S
C742        H749   1.087       .  S
C742        C743   1.354       .  D
C743       C1088   1.535   1_554  S
C743       C1296   1.474       .  S
C744       C1087   1.536       .  S
C744        C748   1.547       .  S
C744        C746   1.538       .  S
C744        H750   1.107       .  S
C745        H751   1.082       .  S
C745       C1090   1.371   1_554  D
C746       C1089   1.370       .  D
C746        C758   1.486       .  S
C747        H752   1.081       .  S
C747       C1092   1.372   1_554  D
C748       C1091   1.373       .  D
C753        C754   1.530       .  S
C753        C759   1.536   1_455  S
C753        C757   1.554       .  S
C753        C892   1.534       .  S
C754        H761   1.084       .  S
C754        C755   1.357       .  D
C755        C756   1.537       .  S
C755        C916   1.481       .  S
C756        C760   1.542       .  S
C756        C758   1.538       .  S
C756       H1106   1.105       .  S
C757        H763   1.085       .  S
C757        C758   1.371       .  D
C759       H2140   1.084       .  S
C759        C760   1.365   1_655  D
C760       C2079   1.490   1_455  S
H762       C1100   1.105   1_554  S
H764       C2135   1.084       .  S
C765        C766   1.543       .  S
C765        C771   1.543       .  S
C765        C769   1.535       .  S
C765        C940   1.536       .  S
C766       H2149   1.083   1_455  S
C766        C767   1.372       .  D
C767        C768   1.540       .  S
C767       C2212   1.503   1_455  S
C768        C772   1.535       .  S
C768        C770   1.542       .  S
C768        H774   1.103       .  S
C769        H775   1.080       .  S
C769        C770   1.359       .  D
C770        C782   1.477       .  S
C771        H776   1.085       .  S
C771        C772   1.364       .  D
C772        C877   1.486       .  S
H773       C2142   1.083       .  S
C777        C778   1.549       .  S
C777        C783   1.542       .  S
C777        C781   1.532       .  S
C777        C976   1.539       .  S
C778        H785   1.076       .  S
C778        C779   1.372       .  D
C779        C780   1.552       .  S
C779        C824   1.509       .  S
C780        C784   1.547       .  S
C780        C782   1.541       .  S
C780        H786   1.106       .  S
C781        H787   1.087       .  S
C781        C782   1.356       .  D
C783        H788   1.086       .  S
C783        C784   1.365       .  D
C784        C865   1.500       .  S
O789       Ni797   1.914       .  S
O789        C799   1.280       .  A
O790       Ni797   1.924       .  S
O790        C800   1.282       .  A
O791       Ni797   1.929       .  S
O791        C801   1.282       .  A
O792       Ni797   1.927       .  S
O792        C802   1.284       .  A
O793       Ni798   1.918       .  S
O793        C802   1.280       .  A
O794       Ni798   1.916       .  S
O794        C801   1.281       .  A
O795       Ni798   1.915       .  S
O795        C800   1.283       .  A
O796       Ni798   1.922       .  S
O796        C799   1.281       .  A
Ni797      Ni798   2.386       .  S
C799       C1012   1.484       .  S
C800        C904   1.491       .  S
C801        C853   1.477       .  S
C802        C868   1.483       .  S
O803       Ni811   1.924       .  S
O803        C813   1.282       .  A
O804       Ni811   1.931       .  S
O804       C2190   1.285   1_455  A
O805       Ni811   1.917       .  S
O805        C815   1.282   1_455  A
O806       Ni811   1.915       .  S
O806       C2192   1.280   1_455  A
O807       Ni812   1.911       .  S
O807        C816   1.281       .  A
O808       Ni812   1.913       .  S
O808       C2191   1.279       .  A
O809       Ni812   1.909       .  S
O809        C814   1.278       .  A
O810       Ni812   1.907       .  S
O810       C2189   1.279       .  A
Ni811     Ni2188   2.387   1_455  S
Ni812     Ni2187   2.387       .  S
C813       O2186   1.279   1_455  A
C813        C889   1.472       .  S
C814       O2180   1.285       .  A
C814        C985   1.493       .  S
C815       O2184   1.279       .  A
C815        C880   1.470       .  S
C816       O2182   1.280       .  A
C816        C841   1.480       .  S
C817        C823   1.545       .  S
C817        C821   1.545       .  S
C817        C964   1.540       .  S
C818        H825   1.085       .  S
C818        C819   1.358       .  D
C819        C820   1.545       .  S
C819        C856   1.493       .  S
C820        H826   1.107       .  S
C821        H827   1.085       .  S
C821        C822   1.362       .  D
C822        C834   1.489       .  S
C823        H828   1.076       .  S
C823        C824   1.374       .  D
C829        C835   1.541       .  S
C829        C833   1.552       .  S
C829        C928   1.547       .  S
C830        H837   1.087       .  S
C830        C831   1.361       .  D
C831        C832   1.538       .  S
C831        C844   1.478       .  S
C832        H838   1.107       .  S
C833        H839   1.081       .  S
C833        C834   1.361       .  D
C835       H2216   1.082       .  S
C835        C836   1.375       .  D
C836       C2143   1.503       .  S
H840       C2211   1.082   1_455  S
C841        C842   1.403       .  A
C841        C846   1.412       .  A
C842        C843   1.399       .  A
C842       H2227   1.084       .  S
C843        C844   1.415       .  A
C843       S2223   1.801       .  S
C844        C845   1.398       .  A
C845        C846   1.398       .  A
C845        H852   1.082       .  S
C846        S848   1.793       .  S
S847       C2219   1.801       .  S
S847       H2226   1.406       .  S
S848        H849   1.406       .  S
H850       S2223   1.406       .  S
H851       C2218   1.084       .  S
C853        C854   1.397       .  A
C853        C858   1.411       .  A
C854        C855   1.396       .  A
C854        H863   1.085       .  S
C855        C856   1.423       .  A
C855        S859   1.805       .  S
C856        C857   1.406       .  A
C857        C858   1.403       .  A
C857        H864   1.083       .  S
C858        S860   1.795       .  S
S859        H862   1.403       .  S
S860        H861   1.406       .  S
C865        C866   1.409       .  A
C865        C870   1.417       .  A
C866        C867   1.403       .  A
C866        H875   1.084       .  S
C867        C868   1.411       .  A
C867        S871   1.802       .  S
C868        C869   1.402       .  A
C869        C870   1.404       .  A
C869        H876   1.084       .  S
C870        S872   1.796       .  S
S871        H874   1.404       .  S
S872        H873   1.406       .  S
C877        C878   1.404       .  A
C877       C2258   1.419   1_455  A
C878        C879   1.395       .  A
C878        H887   1.082       .  S
C879        C880   1.408   1_455  A
C879        S883   1.799       .  S
C880       C2257   1.400       .  A
C881       C2256   1.400       .  A
C881        C882   1.399       .  A
C881        H888   1.084       .  S
C882       C2253   1.419       .  A
C882        S884   1.805       .  S
S883        H886   1.406       .  S
S884        H885   1.407       .  S
C889        C890   1.395   1_455  A
C889        C894   1.408       .  A
C890        C891   1.394       .  A
C890       H2275   1.085       .  S
C891        C892   1.431   1_655  A
C891       S2271   1.808       .  S
C892        C893   1.411       .  A
C893        C894   1.401       .  A
C893        H900   1.081       .  S
C894        S896   1.799       .  S
S895       C2267   1.808       .  S
S895       H2274   1.400       .  S
S896        H897   1.406       .  S
H898       S2271   1.400       .  S
H899       C2266   1.085       .  S
C901        C902   1.409       .  A
C901        C906   1.423       .  A
C902        C903   1.404       .  A
C902        H911   1.079       .  S
C903        C904   1.416       .  A
C903        S907   1.802       .  S
C904        C905   1.401       .  A
C905        C906   1.399       .  A
C905        H912   1.080       .  S
C906        S908   1.814       .  S
S907        H910   1.408       .  S
S908        H909   1.406       .  S
C913        C914   1.403       .  A
C913       C2294   1.414       .  A
C914        C915   1.394       .  A
C914        H923   1.084       .  S
C915        C916   1.415       .  A
C915        S919   1.806       .  S
C916        C917   1.404       .  A
C917       C2294   1.408       .  A
C917       H2644   1.083   1_455  S
C918       C2289   1.415       .  A
C918       C2293   1.408       .  A
C918       S1264   1.807       .  S
S919        H922   1.404       .  S
S920       C1262   1.807   1_554  S
S920        H921   1.407       .  S
H924       C2637   1.083       .  S
C925       C2302   1.403       .  A
C925        C930   1.420       .  A
C926       C2301   1.403   1_455  A
C926        C927   1.405       .  A
C926        H935   1.082       .  S
C927       C2304   1.425   1_455  A
C927        S931   1.810   1_565  S
C928       C2303   1.425       .  A
C928        C929   1.411       .  A
C929        C930   1.403       .  A
S931        H934   1.407   1_545  S
C937        C938   1.406       .  A
C937        C942   1.420   1_455  A
C938        C939   1.404       .  A
C939        C940   1.424       .  A
C940        C941   1.405   1_455  A
C941        C942   1.391       .  A
C941       H2324   1.085       .  S
C942       S2320   1.803       .  S
S943        H946   1.407       .  S
S944       C2318   1.803       .  S
S944        H945   1.408       .  S
H948       C2317   1.085       .  S
C949        C950   1.401       .  A
C949        C954   1.414       .  A
C950       C1295   1.385       .  A
C950        H959   1.083       .  S
C951       C1294   1.385       .  A
C951       C1296   1.414       .  A
C951        S955   1.806       .  S
C952       C1087   1.474       .  S
C952       C1295   1.414       .  A
C952        C953   1.404       .  A
C953        C954   1.404       .  A
C953        H960   1.084       .  S
C954        S956   1.802       .  S
S955        H958   1.396       .  S
S956        H957   1.406       .  S
C961        C966   1.409       .  A
C962        C963   1.398       .  A
C962        H971   1.082       .  S
C963        S967   1.812       .  S
C964        C965   1.414       .  A
C965        C966   1.401       .  A
C965        H972   1.077       .  S
C966        S968   1.800       .  S
S967        H970   1.407       .  S
S968        H969   1.404       .  S
C973        C974   1.401       .  A
C973        C978   1.407       .  A
C974        C975   1.403       .  A
C975        C976   1.424       .  A
C976        C977   1.413       .  A
C977        C978   1.395       .  A
C977        H984   1.084       .  S
C978        S980   1.804       .  S
S979        H982   1.408       .  S
S980        H981   1.403       .  S
C985        C986   1.403       .  A
C985        C990   1.415       .  A
C986        C987   1.408       .  A
C986       H2371   1.082       .  S
C987        C988   1.429       .  A
C987       S2367   1.807       .  S
C988        C989   1.410       .  A
C989        C990   1.396       .  A
C989        H996   1.081       .  S
C990        S992   1.799       .  S
S991       C2363   1.807       .  S
S991        H994   1.407       .  S
S992        H993   1.402       .  S
H995       C2362   1.082       .  S
C997       C1052   1.499       .  S
C997       C1342   1.410       .  A
C997       C1002   1.419       .  A
C998       C1341   1.410       .  A
C998        C999   1.394       .  A
C998       H1007   1.083       .  S
C999       C1344   1.406   1_554  A
C999       S1003   1.803       .  S
C1000      C1343   1.406       .  A
C1000      C1001   1.404       .  A
C1001      C1002   1.407       .  A
C1001      H1008   1.084       .  S
C1002      S1004   1.801       .  S
S1003      H1006   1.405       .  S
S1004      H1005   1.406       .  S
C1009      C1010   1.412       .  A
C1009      C1014   1.418       .  A
C1010      C1011   1.393       .  A
C1010      H1019   1.082       .  S
C1011      C1012   1.409       .  A
C1011      S1015   1.797       .  S
C1012      C1013   1.407       .  A
C1013      C1014   1.407       .  A
C1013      H1020   1.084       .  S
C1014      S1016   1.799       .  S
S1015      H1018   1.405       .  S
S1016      H1017   1.404       .  S
C1021      C1366   1.400       .  A
C1021      C1026   1.416       .  A
C1022      C1365   1.400       .  A
C1022      C1023   1.399   1_556  A
C1022      H1031   1.084   1_556  S
C1023      C1368   1.412   1_554  A
C1023      S1027   1.797       .  S
C1024      C1367   1.411       .  A
C1024      C1025   1.401       .  A
C1025      C1026   1.394       .  A
C1025      H1032   1.084       .  S
C1026      S1028   1.807       .  S
S1027      H1030   1.407       .  S
S1028      H1029   1.407       .  S
C1033      C1034   1.539       .  S
C1033      C1039   1.537       .  S
C1033      C1037   1.548       .  S
C1033      C1353   1.541       .  S
C1034      H1041   1.083       .  S
C1034      C1035   1.371       .  D
C1035      C1036   1.543       .  S
C1035      C1092   1.499       .  S
C1036      C1040   1.530       .  S
C1036      C1038   1.540       .  S
C1037      H1043   1.084       .  S
C1037      C1038   1.371       .  D
C1038      C1050   1.488       .  S
C1039      H1044   1.086       .  S
C1039      C1040   1.354       .  D
C1040      C1365   1.474       .  S
C1045      C1046   1.535       .  S
C1045      C1051   1.530       .  S
C1045      C1049   1.547       .  S
C1045      C1332   1.544       .  S
C1046      H2429   1.081       .  S
C1047      C1048   1.549       .  S
C1047      C2480   1.490       .  S
C1048      C1050   1.540       .  S
C1048      H1054   1.106       .  S
C1049      H1055   1.085       .  S
C1051      H1056   1.087       .  S
C1051      C1052   1.364       .  D
H1053      C2422   1.081       .  S
O1057     Ni1065   1.893       .  S
O1057      C1067   1.278       .  A
O1058      C1068   1.278       .  A
O1059     Ni1065   1.923       .  S
O1059      C1069   1.282       .  A
O1060      C1070   1.283       .  A
O1061      C1070   1.280       .  A
O1062     Ni1066   1.911       .  S
O1062      C1069   1.279       .  A
O1063      C1068   1.283       .  A
O1064     Ni1066   1.923       .  S
O1064      C1067   1.282       .  A
Ni1065    Ni1066   2.390       .  S
C1067      C1293   1.473       .  S
C1068      C1368   1.473       .  S
C1069      C1317   1.472       .  S
C1070      C1305   1.479       .  S
O1071     Ni1079   1.903       .  S
O1071      C1081   1.276       .  A
O1072      C2458   1.274       .  A
O1073      C1083   1.283       .  A
O1074     Ni1079   1.926       .  S
O1074      C2460   1.283       .  A
O1075     Ni1080   1.910       .  S
O1075      C1084   1.280       .  A
O1076      C2459   1.278   1_455  A
O1077      C1082   1.286       .  A
O1078     Ni1080   1.934       .  S
O1078      C2457   1.287   1_455  A
Ni1079    Ni2456   2.382       .  S
Ni1080    Ni2455   2.383   1_455  S
C1081      O2454   1.287       .  A
C1081      C1269   1.497       .  S
C1082      O2448   1.274   1_455  A
C1082      C1281   1.490       .  S
C1083      O2452   1.278       .  A
C1083      C1344   1.475       .  S
C1084      O2450   1.283   1_455  A
C1084      C1257   1.481       .  S
C1085      C1086   1.529       .  S
C1085      C1091   1.533       .  S
C1085      C1089   1.552       .  S
C1085      C1245   1.539       .  S
C1086      H1093   1.087       .  S
C1086      C1087   1.354       .  D
C1088      C1092   1.547       .  S
C1088      C1090   1.537       .  S
C1088      H1094   1.107       .  S
C1089      H1095   1.082       .  S
C1090      C1102   1.486       .  S
C1091      H1096   1.081       .  S
C1097      C1098   1.531       .  S
C1097      C1103   1.536   1_455  S
C1097      C1101   1.554       .  S
C1097      C1236   1.534       .  S
C1098      H1105   1.084       .  S
C1098      C1099   1.357       .  D
C1099      C1100   1.537       .  S
C1099      C1260   1.481       .  S
C1100      C1104   1.541       .  S
C1100      C1102   1.538       .  S
C1101      H1107   1.085       .  S
C1101      C1102   1.371       .  D
C1103      H2484   1.084       .  S
C1103      C1104   1.365   1_655  D
C1104      C2423   1.489   1_455  S
H1108      C2479   1.084       .  S
C1109      C1110   1.542       .  S
C1109      C1115   1.543       .  S
C1109      C1113   1.535       .  S
C1109      C1284   1.536       .  S
C1110      H2493   1.083   1_455  S
C1110      C1111   1.372       .  D
C1111      C1112   1.539       .  S
C1111      C2556   1.502   1_455  S
C1112      C1116   1.534       .  S
C1112      C1114   1.541       .  S
C1112      H1118   1.103       .  S
C1113      H1119   1.080       .  S
C1113      C1114   1.359       .  D
C1114      C1126   1.476       .  S
C1115      H1120   1.085       .  S
C1115      C1116   1.364       .  D
C1116      C1221   1.485       .  S
H1117      C2486   1.083       .  S
C1121      C1122   1.549       .  S
C1121      C1127   1.542       .  S
C1121      C1125   1.531       .  S
C1121      C1320   1.538       .  S
C1122      H1129   1.076       .  S
C1122      C1123   1.371       .  D
C1123      C1124   1.552       .  S
C1123      C1168   1.508       .  S
C1124      C1128   1.547       .  S
C1124      C1126   1.540       .  S
C1124      H1130   1.106       .  S
C1125      H1131   1.087       .  S
C1125      C1126   1.356       .  D
C1127      H1132   1.086       .  S
C1127      C1128   1.366       .  D
C1128      C1209   1.500       .  S
O1133     Ni1141   1.914       .  S
O1133      C1143   1.280       .  A
O1134     Ni1141   1.925       .  S
O1134      C1144   1.282       .  A
O1135     Ni1141   1.928       .  S
O1135      C1145   1.282       .  A
O1136     Ni1141   1.926       .  S
O1136      C1146   1.283       .  A
O1137     Ni1142   1.918       .  S
O1137      C1146   1.280       .  A
O1138     Ni1142   1.916       .  S
O1138      C1145   1.281       .  A
O1139     Ni1142   1.915       .  S
O1139      C1144   1.283       .  A
O1140     Ni1142   1.921       .  S
O1140      C1143   1.281       .  A
Ni1141    Ni1142   2.386       .  S
C1143      C1356   1.484       .  S
C1144      C1248   1.492       .  S
C1145      C1197   1.476       .  S
C1146      C1212   1.482       .  S
O1147     Ni1155   1.924       .  S
O1147      C1157   1.283       .  A
O1148     Ni1155   1.931       .  S
O1148      C2534   1.285   1_455  A
O1149     Ni1155   1.916       .  S
O1149      C1159   1.282   1_455  A
O1150     Ni1155   1.914       .  S
O1150      C2536   1.280   1_455  A
O1151     Ni1156   1.911       .  S
O1151      C1160   1.282       .  A
O1152     Ni1156   1.914       .  S
O1152      C2535   1.279       .  A
O1153     Ni1156   1.909       .  S
O1153      C1158   1.278       .  A
O1154     Ni1156   1.907       .  S
O1154      C2533   1.279       .  A
Ni1155    Ni2532   2.387   1_455  S
Ni1156    Ni2531   2.387       .  S
C1157      O2530   1.279   1_455  A
C1157      C1233   1.472       .  S
C1158      O2524   1.285       .  A
C1158      C1329   1.493       .  S
C1159      O2528   1.279       .  A
C1159      C1224   1.470       .  S
C1160      O2526   1.280       .  A
C1160      C1185   1.481       .  S
C1161      C1167   1.545       .  S
C1161      C1165   1.545       .  S
C1161      C1308   1.540       .  S
C1162      H1169   1.085       .  S
C1162      C1163   1.358       .  D
C1163      C1164   1.544       .  S
C1163      C1200   1.493       .  S
C1164      H1170   1.107       .  S
C1165      H1171   1.085       .  S
C1165      C1166   1.362       .  D
C1166      C1178   1.489       .  S
C1167      H1172   1.076       .  S
C1167      C1168   1.373       .  D
C1173      C1179   1.541       .  S
C1173      C1177   1.553       .  S
C1173      C1272   1.547       .  S
C1174      H1181   1.087       .  S
C1174      C1175   1.361       .  D
C1175      C1176   1.537       .  S
C1175      C1188   1.478       .  S
C1176      H1182   1.107       .  S
C1177      H1183   1.081       .  S
C1177      C1178   1.361       .  D
C1179      H2560   1.082       .  S
C1179      C1180   1.374       .  D
C1180      C2487   1.502       .  S
H1184      C2555   1.082   1_455  S
C1185      C1186   1.403       .  A
C1185      C1190   1.412       .  A
C1186      C1187   1.400       .  A
C1186      H2571   1.084       .  S
C1187      C1188   1.415       .  A
C1187      S2567   1.802       .  S
C1188      C1189   1.397       .  A
C1189      C1190   1.397       .  A
C1189      H1196   1.082       .  S
C1190      S1192   1.793       .  S
S1191      C2563   1.802       .  S
S1191      H2570   1.406       .  S
S1192      H1193   1.406       .  S
H1194      S2567   1.406       .  S
H1195      C2562   1.084       .  S
C1197      C1198   1.397       .  A
C1197      C1202   1.411       .  A
C1198      C1199   1.395       .  A
C1198      H1207   1.084       .  S
C1199      C1200   1.422       .  A
C1199      S1203   1.805       .  S
C1200      C1201   1.406       .  A
C1201      C1202   1.403       .  A
C1201      H1208   1.083       .  S
C1202      S1204   1.796       .  S
S1203      H1206   1.403       .  S
S1204      H1205   1.406       .  S
C1209      C1210   1.410       .  A
C1209      C1214   1.417       .  A
C1210      C1211   1.403       .  A
C1210      H1219   1.084       .  S
C1211      C1212   1.411       .  A
C1211      S1215   1.802       .  S
C1212      C1213   1.402       .  A
C1213      C1214   1.404       .  A
C1213      H1220   1.084       .  S
C1214      S1216   1.796       .  S
S1215      H1218   1.404       .  S
S1216      H1217   1.406       .  S
C1221      C1222   1.404       .  A
C1221      C2602   1.419   1_455  A
C1222      C1223   1.395       .  A
C1222      H1231   1.083       .  S
C1223      C1224   1.408   1_455  A
C1223      S1227   1.799       .  S
C1224      C2601   1.400       .  A
C1225      C2600   1.400       .  A
C1225      C1226   1.399       .  A
C1225      H1232   1.084       .  S
C1226      C2597   1.419       .  A
C1226      S1228   1.805       .  S
S1227      H1230   1.406       .  S
S1228      H1229   1.407       .  S
C1233      C1234   1.395   1_455  A
C1233      C1238   1.407       .  A
C1234      C1235   1.394       .  A
C1234      H2619   1.085       .  S
C1235      C1236   1.431   1_655  A
C1235      S2615   1.808       .  S
C1236      C1237   1.411       .  A
C1237      C1238   1.401       .  A
C1237      H1244   1.081       .  S
C1238      S1240   1.799       .  S
S1239      C2611   1.808       .  S
S1239      H2618   1.400       .  S
S1240      H1241   1.406       .  S
H1242      S2615   1.400       .  S
H1243      C2610   1.085       .  S
C1245      C1246   1.409       .  A
C1245      C1250   1.423       .  A
C1246      C1247   1.404       .  A
C1246      H1255   1.079       .  S
C1247      C1248   1.416       .  A
C1247      S1251   1.802       .  S
C1248      C1249   1.402       .  A
C1249      C1250   1.400       .  A
C1249      H1256   1.080       .  S
C1250      S1252   1.814       .  S
S1251      H1254   1.408       .  S
S1252      H1253   1.406       .  S
C1257      C1258   1.402       .  A
C1257      C2638   1.414       .  A
C1258      C1259   1.394       .  A
C1258      H1267   1.084       .  S
C1259      C1260   1.415       .  A
C1259      S1263   1.806       .  S
C1260      C1261   1.404       .  A
C1261      C2638   1.408       .  A
C1261      H2300   1.083   1_455  S
C1262      C2633   1.414       .  A
C1262      C2637   1.408       .  A
S1263      H1266   1.404       .  S
S1264      H1265   1.407       .  S
H1268      C2293   1.083       .  S
C1269      C2646   1.404       .  A
C1269      C1274   1.421       .  A
C1270      C2645   1.404   1_455  A
C1270      C1271   1.405       .  A
C1270      H1279   1.082       .  S
C1271      C2648   1.425   1_455  A
C1271      S1275   1.810   1_565  S
C1272      C2647   1.425       .  A
C1272      C1273   1.410       .  A
C1273      C1274   1.402       .  A
S1275      H1278   1.407   1_545  S
C1281      C1282   1.406       .  A
C1281      C1286   1.420   1_455  A
C1282      C1283   1.404       .  A
C1283      C1284   1.424       .  A
C1284      C1285   1.405   1_455  A
C1285      C1286   1.391       .  A
C1285      H2668   1.085       .  S
C1286      S2664   1.803       .  S
S1287      H1290   1.407       .  S
S1288      C2662   1.803       .  S
S1288      H1289   1.408       .  S
H1292      C2661   1.085       .  S
C1293      C1294   1.401   1_556  A
C1293      C1298   1.414       .  A
C1294      H1303   1.083       .  S
C1295      S1299   1.805       .  S
C1296      C1297   1.404   1_554  A
C1297      C1298   1.404       .  A
C1297      H1304   1.084       .  S
C1298      S1300   1.802       .  S
S1299      H1302   1.396       .  S
S1300      H1301   1.406       .  S
C1305      C1310   1.409       .  A
C1306      C1307   1.398       .  A
C1306      H1315   1.082       .  S
C1307      S1311   1.812       .  S
C1308      C1309   1.414       .  A
C1309      C1310   1.401       .  A
C1309      H1316   1.077       .  S
C1310      S1312   1.800       .  S
S1311      H1314   1.406       .  S
S1312      H1313   1.404       .  S
C1317      C1318   1.401       .  A
C1317      C1322   1.407       .  A
C1318      C1319   1.403       .  A
C1319      C1320   1.424       .  A
C1320      C1321   1.413       .  A
C1321      C1322   1.395       .  A
C1321      H1328   1.084       .  S
C1322      S1324   1.804       .  S
S1323      H1326   1.408       .  S
S1324      H1325   1.403       .  S
C1329      C1330   1.403       .  A
C1329      C1334   1.415       .  A
C1330      C1331   1.408       .  A
C1330      H2715   1.082       .  S
C1331      C1332   1.429       .  A
C1331      S2711   1.808       .  S
C1332      C1333   1.410       .  A
C1333      C1334   1.396       .  A
C1333      H1340   1.081       .  S
C1334      S1336   1.799       .  S
S1335      C2707   1.807       .  S
S1335      H1338   1.407       .  S
S1336      H1337   1.402       .  S
H1339      C2706   1.082       .  S
C1341      C1346   1.419   1_554  A
C1342      C1343   1.394       .  A
C1342      H1351   1.083       .  S
C1343      S1347   1.802       .  S
C1344      C1345   1.404       .  A
C1345      C1346   1.407       .  A
C1345      H1352   1.084       .  S
C1346      S1348   1.801       .  S
S1347      H1350   1.405       .  S
S1348      H1349   1.406       .  S
C1353      C1354   1.412       .  A
C1353      C1358   1.418       .  A
C1354      C1355   1.393       .  A
C1354      H1363   1.082       .  S
C1355      C1356   1.409       .  A
C1355      S1359   1.797       .  S
C1356      C1357   1.407       .  A
C1357      C1358   1.407       .  A
C1357      H1364   1.084       .  S
C1358      S1360   1.799       .  S
S1359      H1362   1.405       .  S
S1360      H1361   1.404       .  S
C1365      C1370   1.415       .  A
C1366      C1367   1.399       .  A
C1366      H1375   1.084       .  S
C1367      S1371   1.797       .  S
C1368      C1369   1.402       .  A
C1369      C1370   1.394       .  A
C1369      H1376   1.084       .  S
C1370      S1372   1.807       .  S
S1371      H1374   1.407       .  S
S1372      H1373   1.407       .  S
C1377      C1378   1.539       .  S
C1377      C1383   1.537       .  S
C1377      C1381   1.548       .  S
C1377      C1697   1.542       .  S
C1378      H1385   1.083       .  S
C1378      C1379   1.371       .  D
C1379      C1380   1.543       .  S
C1379      C1436   1.499       .  S
C1380      C1384   1.530       .  S
C1380      C1382   1.540       .  S
C1380      H1730   1.105       .  S
C1381      H1387   1.084       .  S
C1381      C1382   1.372       .  D
C1382      C1394   1.488       .  S
C1383      H1388   1.086       .  S
C1383      C1384   1.354       .  D
C1384      C1709   1.475       .  S
H1386      C1724   1.105   1_554  S
C1389      C1390   1.535       .  S
C1389      C1395   1.530       .  S
C1389      C1393   1.547       .  S
C1389      C1676   1.543       .  S
C1390      C1735   1.369   1_554  D
C1391      C1392   1.549       .  S
C1391      C1734   1.369       .  D
C1392      C1740   1.545       .  S
C1392      C1394   1.540       .  S
C1392      H1398   1.106       .  S
C1393      H1399   1.085       .  S
C1393      C1738   1.367   1_554  D
C1394      C1737   1.367       .  D
C1395      H1400   1.087       .  S
C1395      C1396   1.365       .  D
C1396      C1736   1.545   1_554  S
C1396      C2029   1.499       .  S
O1401     Ni1409   1.893       .  S
O1401      C1411   1.278       .  A
O1402     Ni2097   1.905   1_545  S
O1402      C1412   1.278       .  A
O1403     Ni1409   1.923       .  S
O1403      C1413   1.283       .  A
O1404     Ni1753   1.926   1_554  S
O1404      C1414   1.283       .  A
O1405     Ni1754   1.908   1_554  S
O1405      C1414   1.280       .  A
O1406     Ni1410   1.911       .  S
O1406      C1413   1.279       .  A
O1407     Ni2098   1.920   1_545  S
O1407      C1412   1.283       .  A
O1408     Ni1410   1.924       .  S
O1408      C1411   1.282       .  A
Ni1409     O2090   1.905       .  S
Ni1409     O1748   1.926       .  S
Ni1409    Ni1410   2.390       .  S
Ni1410     O1749   1.907       .  S
Ni1410     O2095   1.921       .  S
C1411      C1637   1.473       .  S
C1412      C1712   1.473       .  S
C1413      C1661   1.473       .  S
C1414      C1649   1.479       .  S
O1415     Ni1423   1.904       .  S
O1415      C1425   1.277       .  A
O1416     Ni1767   1.893   1_554  S
O1417     Ni2111   1.925   1_545  S
O1417      C1427   1.283       .  A
O1418     Ni1423   1.927       .  S
O1419     Ni1424   1.910       .  S
O1419      C1428   1.280       .  A
O1420     Ni2112   1.915   1_545  S
O1421     Ni1768   1.936   1_554  S
O1421      C1426   1.287       .  A
O1422     Ni1424   1.933       .  S
Ni1423     O1760   1.893       .  S
Ni1423     O2105   1.925       .  S
Ni1424     O2108   1.916       .  S
Ni1424     O1765   1.935       .  S
C1425      C1613   1.496       .  S
C1426      C1625   1.491       .  S
C1427      C1688   1.475       .  S
C1428      C1601   1.482       .  S
C1429      C1430   1.529       .  S
C1429      C1435   1.533       .  S
C1429      C1433   1.552       .  S
C1429      C1589   1.538       .  S
C1430      H1437   1.087       .  S
C1430      C1431   1.354       .  D
C1431      C1776   1.536   1_554  S
C1431      C1984   1.474       .  S
C1432      C1775   1.535       .  S
C1432      C1436   1.547       .  S
C1432      C1434   1.538       .  S
C1432      H1438   1.107       .  S
C1433      H1439   1.082       .  S
C1433      C1778   1.371   1_554  D
C1434      C1777   1.371       .  D
C1434      C1446   1.486       .  S
C1435      H1440   1.081       .  S
C1435      C1780   1.372   1_554  D
C1436      C1779   1.373       .  D
C1441      C1442   1.531       .  S
C1441      C1447   1.536       .  S
C1441      C1445   1.554       .  S
C1441      C1580   1.534       .  S
C1442      H1449   1.084       .  S
C1442      C1443   1.357       .  D
C1443      C1444   1.537       .  S
C1443      C1604   1.482       .  S
C1444      C1448   1.541       .  S
C1444      C1446   1.538       .  S
C1444      H1794   1.105       .  S
C1445      H1451   1.085       .  S
C1445      C1446   1.371       .  D
C1447      C1448   1.365       .  D
H1450      C1788   1.105   1_554  S
C1453      C1454   1.543       .  S
C1453      C1459   1.543       .  S
C1453      C1457   1.535       .  S
C1453      C1628   1.536       .  S
C1454      C1455   1.372       .  D
C1455      C1456   1.539       .  S
C1456      C1460   1.535       .  S
C1456      C1458   1.541       .  S
C1456      H1462   1.103       .  S
C1457      H1463   1.080       .  S
C1457      C1458   1.359       .  D
C1458      C1470   1.477       .  S
C1459      H1464   1.085       .  S
C1459      C1460   1.364       .  D
C1460      C1565   1.486       .  S
C1465      C1466   1.549       .  S
C1465      C1471   1.542       .  S
C1465      C1469   1.532       .  S
C1465      C1664   1.539       .  S
C1466      H1473   1.076       .  S
C1466      C1467   1.372       .  D
C1467      C1468   1.552       .  S
C1467      C1512   1.508       .  S
C1468      C1472   1.547       .  S
C1468      C1470   1.541       .  S
C1468      H1474   1.106       .  S
C1469      H1475   1.087       .  S
C1469      C1470   1.356       .  D
C1471      H1476   1.086       .  S
C1471      C1472   1.365       .  D
C1472      C1553   1.499       .  S
O1477     Ni1485   1.914       .  S
O1477      C1487   1.281       .  A
O1478     Ni1485   1.924       .  S
O1478      C1488   1.282       .  A
O1479     Ni1485   1.927       .  S
O1479      C1489   1.282       .  A
O1480     Ni1485   1.926       .  S
O1480      C1490   1.283       .  A
O1481     Ni1486   1.918       .  S
O1481      C1490   1.280       .  A
O1482     Ni1486   1.915       .  S
O1482      C1489   1.281       .  A
O1483     Ni1486   1.914       .  S
O1483      C1488   1.283       .  A
O1484     Ni1486   1.922       .  S
O1484      C1487   1.281       .  A
Ni1485    Ni1486   2.386       .  S
C1487      C1700   1.485       .  S
C1488      C1592   1.491       .  S
C1489      C1541   1.476       .  S
C1490      C1556   1.482       .  S
O1491     Ni1499   1.924       .  S
O1491      C1501   1.282       .  A
O1492     Ni1499   1.931       .  S
O1493     Ni1499   1.917       .  S
O1493      C1503   1.282       .  A
O1494     Ni1499   1.915       .  S
O1495     Ni1500   1.911       .  S
O1495      C1504   1.281       .  A
O1496     Ni1500   1.913       .  S
O1497     Ni1500   1.909       .  S
O1497      C1502   1.277       .  A
O1498     Ni1500   1.907       .  S
C1501      C1577   1.472       .  S
C1502      C1673   1.493       .  S
C1503      C1568   1.470       .  S
C1504      C1529   1.481       .  S
C1505      C2194   1.526       .  S
C1505      C1511   1.545       .  S
C1505      C1509   1.544       .  S
C1505      C1652   1.540       .  S
C1506      C2193   1.525   1_545  S
C1506      H1513   1.085       .  S
C1506      C1507   1.358       .  D
C1507      C1508   1.544   1_545  S
C1507      C1544   1.492       .  S
C1508      C2200   1.557       .  S
C1508      C2198   1.540       .  S
C1508      H1514   1.107   1_565  S
C1509      H1515   1.085       .  S
C1509      C1510   1.362       .  D
C1510      C2196   1.540       .  S
C1510      C1522   1.489       .  S
C1511      H1516   1.076       .  S
C1511      C1512   1.374       .  D
C1512      C2196   1.557       .  S
C1517      C2206   1.534       .  S
C1517      C1523   1.541       .  S
C1517      C1521   1.552       .  S
C1517      C1616   1.547       .  S
C1518      C2205   1.533   1_545  S
C1518      H1525   1.087       .  S
C1518      C1519   1.361       .  D
C1519      C1520   1.538       .  S
C1519      C1532   1.478       .  S
C1520      C2212   1.545   1_545  S
C1520      C2210   1.543   1_545  S
C1520      H1526   1.107       .  S
C1521      H1527   1.081       .  S
C1521      C1522   1.361       .  D
C1522      C2208   1.543       .  S
C1523      C1524   1.375       .  D
C1524      C2208   1.544       .  S
C1529      C1530   1.403   1_655  A
C1529      C1534   1.412       .  A
C1530      C1531   1.400       .  A
C1531      C1532   1.415   1_455  A
C1532      C1533   1.398       .  A
C1533      C1534   1.398       .  A
C1533      H1540   1.082       .  S
C1534      S1536   1.793       .  S
S1536      H1537   1.406       .  S
C1541      C1542   1.397       .  A
C1541      C1546   1.411       .  A
C1542      C1543   1.395       .  A
C1542      H1551   1.085       .  S
C1543      C1544   1.422       .  A
C1543      S1547   1.805       .  S
C1544      C1545   1.406       .  A
C1545      C1546   1.403       .  A
C1545      H1552   1.083       .  S
C1546      S1548   1.796       .  S
S1547      H1550   1.403       .  S
S1548      H1549   1.406       .  S
C1553      C1554   1.409       .  A
C1553      C1558   1.417       .  A
C1554      C1555   1.403       .  A
C1554      H1563   1.084       .  S
C1555      C1556   1.411       .  A
C1555      S1559   1.802       .  S
C1556      C1557   1.402       .  A
C1557      C1558   1.404       .  A
C1557      H1564   1.084       .  S
C1558      S1560   1.796       .  S
S1559      H1562   1.405       .  S
S1560      H1561   1.406       .  S
C1565      C1566   1.404       .  A
C1566      C1567   1.395       .  A
C1566      H1575   1.082       .  S
C1567      C1568   1.408       .  A
C1567      S1571   1.799       .  S
C1569      C1570   1.399       .  A
C1569      H1576   1.084       .  S
C1570      S1572   1.805       .  S
S1571      H1574   1.406       .  S
S1572      H1573   1.407       .  S
C1577      C1578   1.395       .  A
C1577      C1582   1.407       .  A
C1578      C1579   1.394       .  A
C1579      C1580   1.431       .  A
C1580      C1581   1.411       .  A
C1581      C1582   1.401       .  A
C1581      H1588   1.081       .  S
C1582      S1584   1.799       .  S
S1584      H1585   1.406       .  S
C1589      C1590   1.409       .  A
C1589      C1594   1.423       .  A
C1590      C1591   1.404       .  A
C1590      H1599   1.079       .  S
C1591      C1592   1.416       .  A
C1591      S1595   1.802       .  S
C1592      C1593   1.402       .  A
C1593      C1594   1.399       .  A
C1593      H1600   1.080       .  S
C1594      S1596   1.814       .  S
S1595      H1598   1.408       .  S
S1596      H1597   1.406       .  S
C1601      C1602   1.403       .  A
C1602      C1603   1.394       .  A
C1602      H1611   1.084       .  S
C1603      C1604   1.415       .  A
C1603      S1607   1.806       .  S
C1604      C1605   1.404       .  A
C1606      S1952   1.807   1_455  S
S1607      H1610   1.404       .  S
S1608      C1950   1.807   1_654  S
S1608      H1609   1.407       .  S
C1613      C1618   1.420       .  A
C1614      C1615   1.405       .  A
C1614      H1623   1.082       .  S
C1615      S1619   1.810       .  S
C1616      C1617   1.410       .  A
C1617      C1618   1.403       .  A
C1617      H2312   1.073       .  S
C1618      S2308   1.815       .  S
S1619      H1622   1.407       .  S
S1620      C2306   1.815       .  S
S1620      H2309   1.407       .  S
H1621      S2308   1.407       .  S
H1624      C2305   1.073       .  S
C1625      C1626   1.406       .  A
C1625      C1630   1.420       .  A
C1626      C1627   1.404       .  A
C1626      H2323   1.084       .  S
C1627      C1628   1.424       .  A
C1627      S2319   1.804       .  S
C1628      C1629   1.405       .  A
C1629      C1630   1.391       .  A
S1631      C2315   1.803   1_545  S
S1631      H1634   1.407       .  S
S1632      H1633   1.408       .  S
H1635      C2314   1.084       .  S
C1637      C1638   1.401       .  A
C1637      C1642   1.414       .  A
C1638      C1983   1.385       .  A
C1638      H1647   1.083       .  S
C1639      C1982   1.385       .  A
C1639      C1984   1.414       .  A
C1639      S1643   1.806       .  S
C1640      C1775   1.475       .  S
C1640      C1983   1.414       .  A
C1640      C1641   1.404       .  A
C1641      C1642   1.404       .  A
C1641      H1648   1.084       .  S
C1642      S1644   1.802       .  S
S1643      H1646   1.396       .  S
S1644      H1645   1.406       .  S
C1649      C2338   1.395       .  A
C1649      C1654   1.409       .  A
C1650      C2337   1.395       .  A
C1650      C1651   1.398       .  A
C1650      H1659   1.082       .  S
C1651      C2340   1.430       .  A
C1651      S1655   1.812   1_565  S
C1652      C2339   1.430       .  A
C1652      C1653   1.414       .  A
C1653      C1654   1.401       .  A
C1653      H1660   1.077       .  S
C1654      S1656   1.800       .  S
S1655      H1658   1.407       .  S
S1656      H1657   1.404       .  S
C1661      C1662   1.401       .  A
C1661      C1666   1.408       .  A
C1662      C1663   1.403       .  A
C1662      H2359   1.084       .  S
C1663      C1664   1.424       .  A
C1663      S2355   1.801       .  S
C1664      C1665   1.413       .  A
C1665      C1666   1.396       .  A
C1665      H1672   1.084       .  S
C1666      S1668   1.804       .  S
S1667      C2351   1.801   1_545  S
S1667      H1670   1.408       .  S
S1668      H1669   1.403       .  S
H1671      C2350   1.084   1_545  S
C1673      C1674   1.403   1_655  A
C1673      C1678   1.415       .  A
C1674      C1675   1.408       .  A
C1675      C1676   1.429   1_455  A
C1676      C1677   1.410       .  A
C1677      C1678   1.396       .  A
C1677      H1684   1.081       .  S
C1678      S1680   1.799       .  S
S1679      H1682   1.407       .  S
S1680      H1681   1.402       .  S
C1685      C1740   1.499       .  S
C1685      C2030   1.410       .  A
C1685      C1690   1.419   1_655  A
C1686      C2029   1.410       .  A
C1686      C1687   1.394       .  A
C1686      H1695   1.083       .  S
C1687      C2032   1.406   1_554  A
C1687      S1691   1.803       .  S
C1688      C2031   1.406       .  A
C1688      C1689   1.404   1_655  A
C1689      C1690   1.407       .  A
C1689      H1696   1.084       .  S
C1690      S1692   1.801       .  S
S1691      H1694   1.405   1_655  S
S1692      H1693   1.406       .  S
C1697      C1698   1.413       .  A
C1697      C1702   1.418       .  A
C1698      C1699   1.393       .  A
C1698      H1707   1.082       .  S
C1699      C1700   1.409       .  A
C1699      S1703   1.797       .  S
C1700      C1701   1.407       .  A
C1701      C1702   1.407       .  A
C1701      H1708   1.084       .  S
C1702      S1704   1.799       .  S
S1703      H1706   1.405       .  S
S1704      H1705   1.404       .  S
C1709      C2054   1.400       .  A
C1709      C1714   1.415       .  A
C1710      C2053   1.400       .  A
C1710      C1711   1.399   1_556  A
C1710      H1719   1.084   1_556  S
C1711      C2056   1.412   1_554  A
C1711      S1715   1.797       .  S
C1712      C2055   1.412       .  A
C1712      C1713   1.402       .  A
C1713      C1714   1.394       .  A
C1713      H1720   1.084       .  S
C1714      S1716   1.807       .  S
S1715      H1718   1.407       .  S
S1716      H1717   1.407       .  S
C1721      C1722   1.539       .  S
C1721      C1727   1.537       .  S
C1721      C1725   1.548       .  S
C1721      C2041   1.541       .  S
C1722      H1729   1.083       .  S
C1722      C1723   1.371       .  D
C1723      C1724   1.543       .  S
C1723      C1780   1.499       .  S
C1724      C1728   1.530       .  S
C1724      C1726   1.540       .  S
C1725      H1731   1.084       .  S
C1725      C1726   1.371       .  D
C1726      C1738   1.488       .  S
C1727      H1732   1.086       .  S
C1727      C1728   1.354       .  D
C1728      C2053   1.474       .  S
C1733      C1734   1.535       .  S
C1733      C1739   1.530       .  S
C1733      C1737   1.547       .  S
C1733      C2020   1.544       .  S
C1735      C1736   1.549       .  S
C1736      C1738   1.540       .  S
C1736      H1742   1.106       .  S
C1737      H1743   1.085       .  S
C1739      H1744   1.087       .  S
C1739      C1740   1.364       .  D
O1745     Ni1753   1.893       .  S
O1745      C1755   1.278       .  A
O1746     Ni2441   1.905   1_545  S
O1746      C1756   1.278       .  A
O1747     Ni1753   1.923       .  S
O1747      C1757   1.283       .  A
O1748      C1758   1.283       .  A
O1749      C1758   1.280       .  A
O1750     Ni1754   1.911       .  S
O1750      C1757   1.279       .  A
O1751     Ni2442   1.920   1_545  S
O1751      C1756   1.283       .  A
O1752     Ni1754   1.923       .  S
O1752      C1755   1.282       .  A
Ni1753     O2434   1.905       .  S
Ni1753    Ni1754   2.390       .  S
Ni1754     O2439   1.920       .  S
C1755      C1981   1.473       .  S
C1756      C2056   1.473       .  S
C1757      C2005   1.472       .  S
C1758      C1993   1.479       .  S
O1759     Ni1767   1.903       .  S
O1759      C1769   1.276       .  A
O1761     Ni2455   1.925   1_545  S
O1761      C1771   1.283       .  A
O1762     Ni1767   1.926       .  S
O1763     Ni1768   1.910       .  S
O1763      C1772   1.280       .  A
O1764     Ni2456   1.916   1_545  S
O1765      C1770   1.286       .  A
O1766     Ni1768   1.934       .  S
Ni1767     O2449   1.925       .  S
Ni1768     O2452   1.916       .  S
C1769      C1957   1.497       .  S
C1770      C1969   1.490       .  S
C1771      C2032   1.475       .  S
C1772      C1945   1.481       .  S
C1773      C1774   1.529       .  S
C1773      C1779   1.533       .  S
C1773      C1777   1.552       .  S
C1773      C1933   1.539       .  S
C1774      H1781   1.087       .  S
C1774      C1775   1.354       .  D
C1776      C1780   1.547       .  S
C1776      C1778   1.538       .  S
C1776      H1782   1.107       .  S
C1777      H1783   1.082       .  S
C1778      C1790   1.486       .  S
C1779      H1784   1.081       .  S
C1785      C1786   1.530       .  S
C1785      C1791   1.536       .  S
C1785      C1789   1.554       .  S
C1785      C1924   1.534       .  S
C1786      H1793   1.084       .  S
C1786      C1787   1.357       .  D
C1787      C1788   1.537       .  S
C1787      C1948   1.482       .  S
C1788      C1792   1.542       .  S
C1788      C1790   1.538       .  S
C1789      H1795   1.085       .  S
C1789      C1790   1.371       .  D
C1791      C1792   1.365       .  D
C1797      C1798   1.542       .  S
C1797      C1803   1.543       .  S
C1797      C1801   1.535       .  S
C1797      C1972   1.536       .  S
C1798      C1799   1.372       .  D
C1799      C1800   1.539       .  S
C1800      C1804   1.535       .  S
C1800      C1802   1.541       .  S
C1800      H1806   1.103       .  S
C1801      H1807   1.080       .  S
C1801      C1802   1.359       .  D
C1802      C1814   1.477       .  S
C1803      H1808   1.085       .  S
C1803      C1804   1.364       .  D
C1804      C1909   1.485       .  S
C1809      C1810   1.549       .  S
C1809      C1815   1.542       .  S
C1809      C1813   1.532       .  S
C1809      C2008   1.539       .  S
C1810      H1817   1.076       .  S
C1810      C1811   1.371       .  D
C1811      C1812   1.552       .  S
C1811      C1856   1.508       .  S
C1812      C1816   1.547       .  S
C1812      C1814   1.540       .  S
C1812      H1818   1.106       .  S
C1813      H1819   1.087       .  S
C1813      C1814   1.356       .  D
C1815      H1820   1.086       .  S
C1815      C1816   1.365       .  D
C1816      C1897   1.500       .  S
O1821     Ni1829   1.914       .  S
O1821      C1831   1.281       .  A
O1822     Ni1829   1.925       .  S
O1822      C1832   1.282       .  A
O1823     Ni1829   1.927       .  S
O1823      C1833   1.281       .  A
O1824     Ni1829   1.926       .  S
O1824      C1834   1.283       .  A
O1825     Ni1830   1.918       .  S
O1825      C1834   1.281       .  A
O1826     Ni1830   1.916       .  S
O1826      C1833   1.281       .  A
O1827     Ni1830   1.915       .  S
O1827      C1832   1.283       .  A
O1828     Ni1830   1.922       .  S
O1828      C1831   1.281       .  A
Ni1829    Ni1830   2.386       .  S
C1831      C2044   1.485       .  S
C1832      C1936   1.492       .  S
C1833      C1885   1.476       .  S
C1834      C1900   1.482       .  S
O1835     Ni1843   1.924       .  S
O1835      C1845   1.283       .  A
O1836     Ni1843   1.931       .  S
O1837     Ni1843   1.917       .  S
O1837      C1847   1.282       .  A
O1838     Ni1843   1.915       .  S
O1839     Ni1844   1.910       .  S
O1839      C1848   1.281       .  A
O1840     Ni1844   1.912       .  S
O1841     Ni1844   1.909       .  S
O1841      C1846   1.278       .  A
O1842     Ni1844   1.907       .  S
C1845      C1921   1.472       .  S
C1846      C2017   1.493       .  S
C1847      C1912   1.470       .  S
C1848      C1873   1.480       .  S
C1849      C2538   1.526       .  S
C1849      C1855   1.544       .  S
C1849      C1853   1.544       .  S
C1849      C1996   1.539       .  S
C1850      C2537   1.525   1_545  S
C1850      H1857   1.085       .  S
C1850      C1851   1.358       .  D
C1851      C1852   1.545   1_545  S
C1851      C1888   1.493       .  S
C1852      C2544   1.557       .  S
C1852      C2542   1.540       .  S
C1852      H1858   1.107   1_565  S
C1853      H1859   1.085       .  S
C1853      C1854   1.362       .  D
C1854      C2540   1.539       .  S
C1854      C1866   1.489       .  S
C1855      H1860   1.076       .  S
C1855      C1856   1.373       .  D
C1856      C2540   1.557       .  S
C1861      C2550   1.533       .  S
C1861      C1867   1.542       .  S
C1861      C1865   1.552       .  S
C1861      C1960   1.547       .  S
C1862      C2549   1.533   1_545  S
C1862      H1869   1.087       .  S
C1862      C1863   1.361       .  D
C1863      C1864   1.537       .  S
C1863      C1876   1.477       .  S
C1864      C2556   1.544   1_545  S
C1864      C2554   1.542   1_545  S
C1864      H1870   1.107       .  S
C1865      H1871   1.081       .  S
C1865      C1866   1.361       .  D
C1866      C2552   1.542       .  S
C1867      C1868   1.375       .  D
C1868      C2552   1.544       .  S
C1873      C1874   1.403   1_655  A
C1873      C1878   1.412       .  A
C1874      C1875   1.399       .  A
C1875      C1876   1.415   1_455  A
C1876      C1877   1.397       .  A
C1877      C1878   1.397       .  A
C1877      H1884   1.082       .  S
C1878      S1880   1.792       .  S
S1880      H1881   1.405       .  S
C1885      C1886   1.397       .  A
C1885      C1890   1.411       .  A
C1886      C1887   1.396       .  A
C1886      H1895   1.084       .  S
C1887      C1888   1.423       .  A
C1887      S1891   1.805       .  S
C1888      C1889   1.406       .  A
C1889      C1890   1.403       .  A
C1889      H1896   1.083       .  S
C1890      S1892   1.796       .  S
S1891      H1894   1.403       .  S
S1892      H1893   1.406       .  S
C1897      C1898   1.410       .  A
C1897      C1902   1.417       .  A
C1898      C1899   1.403       .  A
C1898      H1907   1.084       .  S
C1899      C1900   1.411       .  A
C1899      S1903   1.802       .  S
C1900      C1901   1.402       .  A
C1901      C1902   1.403       .  A
C1901      H1908   1.084       .  S
C1902      S1904   1.796       .  S
S1903      H1906   1.404       .  S
S1904      H1905   1.406       .  S
C1909      C1910   1.404       .  A
C1910      C1911   1.395       .  A
C1910      H1919   1.082       .  S
C1911      C1912   1.408       .  A
C1911      S1915   1.799       .  S
C1913      C1914   1.398       .  A
C1913      H1920   1.084       .  S
C1914      S1916   1.805       .  S
S1915      H1918   1.406       .  S
S1916      H1917   1.407       .  S
C1921      C1922   1.395       .  A
C1921      C1926   1.408       .  A
C1922      C1923   1.394       .  A
C1923      C1924   1.431       .  A
C1924      C1925   1.411       .  A
C1925      C1926   1.401       .  A
C1925      H1932   1.081       .  S
C1926      S1928   1.799       .  S
S1928      H1929   1.406       .  S
C1933      C1934   1.409       .  A
C1933      C1938   1.423       .  A
C1934      C1935   1.404       .  A
C1934      H1943   1.079       .  S
C1935      C1936   1.416       .  A
C1935      S1939   1.802       .  S
C1936      C1937   1.402       .  A
C1937      C1938   1.400       .  A
C1937      H1944   1.080       .  S
C1938      S1940   1.814       .  S
S1939      H1942   1.408       .  S
S1940      H1941   1.406       .  S
C1945      C1946   1.402       .  A
C1946      C1947   1.394       .  A
C1946      H1955   1.084       .  S
C1947      C1948   1.415       .  A
C1947      S1951   1.807       .  S
C1948      C1949   1.404       .  A
S1951      H1954   1.404       .  S
S1952      H1953   1.407       .  S
C1957      C1962   1.421       .  A
C1958      C1959   1.405       .  A
C1958      H1967   1.083       .  S
C1959      S1963   1.809       .  S
C1960      C1961   1.411       .  A
C1961      C1962   1.402       .  A
C1961      H2656   1.072       .  S
C1962      S2652   1.816       .  S
S1963      H1966   1.407       .  S
S1964      C2650   1.815       .  S
S1964      H2653   1.407       .  S
H1965      S2652   1.407       .  S
H1968      C2649   1.072       .  S
C1969      C1970   1.406       .  A
C1969      C1974   1.420       .  A
C1970      C1971   1.404       .  A
C1970      H2667   1.084       .  S
C1971      C1972   1.424       .  A
C1971      S2663   1.804       .  S
C1972      C1973   1.405       .  A
C1973      C1974   1.391       .  A
S1975      C2659   1.804   1_545  S
S1975      H1978   1.407       .  S
S1976      H1977   1.408       .  S
H1979      C2658   1.084       .  S
C1981      C1982   1.401   1_556  A
C1981      C1986   1.414       .  A
C1982      H1991   1.083       .  S
C1983      S1987   1.806       .  S
C1984      C1985   1.404   1_554  A
C1985      C1986   1.404       .  A
C1985      H1992   1.084       .  S
C1986      S1988   1.802       .  S
S1987      H1990   1.396       .  S
S1988      H1989   1.406       .  S
C1993      C2682   1.395       .  A
C1993      C1998   1.409       .  A
C1994      C2681   1.395       .  A
C1994      C1995   1.398       .  A
C1994      H2003   1.082       .  S
C1995      C2684   1.431       .  A
C1995      S1999   1.812   1_565  S
C1996      C2683   1.430       .  A
C1996      C1997   1.414       .  A
C1997      C1998   1.400       .  A
C1997      H2004   1.077       .  S
C1998      S2000   1.800       .  S
S1999      H2002   1.406       .  S
S2000      H2001   1.404       .  S
C2005      C2006   1.401       .  A
C2005      C2010   1.407       .  A
C2006      C2007   1.403       .  A
C2006      H2703   1.084       .  S
C2007      C2008   1.424       .  A
C2007      S2699   1.801       .  S
C2008      C2009   1.413       .  A
C2009      C2010   1.395       .  A
C2009      H2016   1.084       .  S
C2010      S2012   1.804       .  S
S2011      C2695   1.801   1_545  S
S2011      H2014   1.408       .  S
S2012      H2013   1.404       .  S
H2015      C2694   1.084   1_545  S
C2017      C2018   1.403   1_655  A
C2017      C2022   1.415       .  A
C2018      C2019   1.408       .  A
C2019      C2020   1.429   1_455  A
C2020      C2021   1.410       .  A
C2021      C2022   1.396       .  A
C2021      H2028   1.081       .  S
C2022      S2024   1.800       .  S
S2023      H2026   1.406       .  S
S2024      H2025   1.402       .  S
C2029      C2034   1.419   1_654  A
C2030      C2031   1.394       .  A
C2030      H2039   1.083       .  S
C2031      S2035   1.803       .  S
C2032      C2033   1.403   1_655  A
C2033      C2034   1.407       .  A
C2033      H2040   1.084       .  S
C2034      S2036   1.801       .  S
S2035      H2038   1.405   1_655  S
S2036      H2037   1.406       .  S
C2041      C2042   1.412       .  A
C2041      C2046   1.418       .  A
C2042      C2043   1.393       .  A
C2042      H2051   1.082       .  S
C2043      C2044   1.409       .  A
C2043      S2047   1.797       .  S
C2044      C2045   1.407       .  A
C2045      C2046   1.407       .  A
C2045      H2052   1.084       .  S
C2046      S2048   1.799       .  S
S2047      H2050   1.405       .  S
S2048      H2049   1.404       .  S
C2053      C2058   1.415       .  A
C2054      C2055   1.399       .  A
C2054      H2063   1.084       .  S
C2055      S2059   1.797       .  S
C2056      C2057   1.402       .  A
C2057      C2058   1.394       .  A
C2057      H2064   1.084       .  S
C2058      S2060   1.807       .  S
S2059      H2062   1.407       .  S
S2060      H2061   1.407       .  S
C2065      C2066   1.539       .  S
C2065      C2071   1.537       .  S
C2065      C2069   1.548       .  S
C2065      C2385   1.541       .  S
C2066      H2073   1.083       .  S
C2066      C2067   1.372       .  D
C2067      C2068   1.543       .  S
C2067      C2124   1.498       .  S
C2068      C2072   1.530       .  S
C2068      C2070   1.540       .  S
C2068      H2418   1.105       .  S
C2069      H2075   1.084       .  S
C2069      C2070   1.371       .  D
C2070      C2082   1.488       .  S
C2071      H2076   1.086       .  S
C2071      C2072   1.354       .  D
C2072      C2397   1.475       .  S
H2074      C2412   1.105   1_554  S
C2077      C2078   1.535       .  S
C2077      C2083   1.530       .  S
C2077      C2081   1.547       .  S
C2077      C2364   1.543       .  S
C2078      C2423   1.369   1_554  D
C2079      C2080   1.549       .  S
C2079      C2422   1.369       .  D
C2080      C2428   1.544       .  S
C2080      C2082   1.540       .  S
C2080      H2086   1.106       .  S
C2081      H2087   1.085       .  S
C2081      C2426   1.366   1_554  D
C2082      C2425   1.367       .  D
C2083      H2088   1.087       .  S
C2083      C2084   1.365       .  D
C2084      C2424   1.544   1_554  S
C2084      C2717   1.499       .  S
O2089     Ni2097   1.893       .  S
O2089      C2099   1.278       .  A
O2090      C2100   1.278       .  A
O2091     Ni2097   1.923       .  S
O2091      C2101   1.283       .  A
O2092     Ni2441   1.926   1_554  S
O2092      C2102   1.283       .  A
O2093     Ni2442   1.908   1_554  S
O2093      C2102   1.280       .  A
O2094     Ni2098   1.912       .  S
O2094      C2101   1.279       .  A
O2095      C2100   1.283       .  A
O2096     Ni2098   1.923       .  S
O2096      C2099   1.282       .  A
Ni2097     O2436   1.926       .  S
Ni2097    Ni2098   2.390       .  S
Ni2098     O2437   1.908       .  S
C2099      C2325   1.473       .  S
C2100      C2400   1.473       .  S
C2101      C2349   1.473       .  S
C2102      C2337   1.479       .  S
O2103     Ni2111   1.903       .  S
O2103      C2113   1.276       .  A
O2104     Ni2455   1.892   1_554  S
O2105      C2115   1.283       .  A
O2106     Ni2111   1.927       .  S
O2107     Ni2112   1.910       .  S
O2107      C2116   1.280       .  A
O2109     Ni2456   1.936   1_554  S
O2109      C2114   1.287       .  A
O2110     Ni2112   1.933       .  S
Ni2111     O2448   1.892       .  S
Ni2112     O2453   1.935       .  S
C2113      C2301   1.497       .  S
C2114      C2313   1.491       .  S
C2115      C2376   1.475       .  S
C2116      C2289   1.481       .  S
C2117      C2118   1.529       .  S
C2117      C2123   1.533       .  S
C2117      C2121   1.552       .  S
C2117      C2277   1.538       .  S
C2118      H2125   1.087       .  S
C2118      C2119   1.354       .  D
C2119      C2464   1.535   1_554  S
C2119      C2672   1.474       .  S
C2120      C2463   1.535       .  S
C2120      C2124   1.546       .  S
C2120      C2122   1.538       .  S
C2120      H2126   1.107       .  S
C2121      H2127   1.082       .  S
C2121      C2466   1.371   1_554  D
C2122      C2465   1.371       .  D
C2122      C2134   1.486       .  S
C2123      H2128   1.082       .  S
C2123      C2468   1.372   1_554  D
C2124      C2467   1.372       .  D
C2129      C2130   1.530       .  S
C2129      C2135   1.536       .  S
C2129      C2133   1.553       .  S
C2129      C2268   1.534       .  S
C2130      H2137   1.084       .  S
C2130      C2131   1.357       .  D
C2131      C2132   1.537       .  S
C2131      C2292   1.481       .  S
C2132      C2136   1.541       .  S
C2132      C2134   1.538       .  S
C2132      H2482   1.105       .  S
C2133      H2139   1.085       .  S
C2133      C2134   1.371       .  D
C2135      C2136   1.365       .  D
H2138      C2476   1.105   1_554  S
C2141      C2142   1.543       .  S
C2141      C2147   1.543       .  S
C2141      C2145   1.535       .  S
C2141      C2316   1.537       .  S
C2142      C2143   1.372       .  D
C2143      C2144   1.540       .  S
C2144      C2148   1.534       .  S
C2144      C2146   1.541       .  S
C2144      H2150   1.103       .  S
C2145      H2151   1.080       .  S
C2145      C2146   1.359       .  D
C2146      C2158   1.477       .  S
C2147      H2152   1.085       .  S
C2147      C2148   1.364       .  D
C2148      C2253   1.485       .  S
C2153      C2154   1.549       .  S
C2153      C2159   1.542       .  S
C2153      C2157   1.532       .  S
C2153      C2352   1.540       .  S
C2154      H2161   1.076       .  S
C2154      C2155   1.372       .  D
C2155      C2156   1.552       .  S
C2155      C2200   1.509       .  S
C2156      C2160   1.547       .  S
C2156      C2158   1.541       .  S
C2156      H2162   1.106       .  S
C2157      H2163   1.087       .  S
C2157      C2158   1.356       .  D
C2159      H2164   1.086       .  S
C2159      C2160   1.365       .  D
C2160      C2241   1.500       .  S
O2165     Ni2173   1.914       .  S
O2165      C2175   1.280       .  A
O2166     Ni2173   1.924       .  S
O2166      C2176   1.282       .  A
O2167     Ni2173   1.928       .  S
O2167      C2177   1.282       .  A
O2168     Ni2173   1.927       .  S
O2168      C2178   1.284       .  A
O2169     Ni2174   1.918       .  S
O2169      C2178   1.280       .  A
O2170     Ni2174   1.915       .  S
O2170      C2177   1.281       .  A
O2171     Ni2174   1.914       .  S
O2171      C2176   1.283       .  A
O2172     Ni2174   1.922       .  S
O2172      C2175   1.281       .  A
Ni2173    Ni2174   2.386       .  S
C2175      C2388   1.484       .  S
C2176      C2280   1.491       .  S
C2177      C2229   1.477       .  S
C2178      C2244   1.483       .  S
O2179     Ni2187   1.924       .  S
O2179      C2189   1.282       .  A
O2180     Ni2187   1.931       .  S
O2181     Ni2187   1.917       .  S
O2181      C2191   1.282       .  A
O2182     Ni2187   1.915       .  S
O2183     Ni2188   1.911       .  S
O2183      C2192   1.281       .  A
O2184     Ni2188   1.913       .  S
O2185     Ni2188   1.909       .  S
O2185      C2190   1.278       .  A
O2186     Ni2188   1.907       .  S
C2189      C2265   1.472       .  S
C2190      C2361   1.493       .  S
C2191      C2256   1.470       .  S
C2192      C2217   1.480       .  S
C2193      C2199   1.545       .  S
C2193      C2197   1.545       .  S
C2193      C2340   1.540       .  S
C2194      H2201   1.085       .  S
C2194      C2195   1.358       .  D
C2195      C2196   1.544       .  S
C2195      C2232   1.492       .  S
C2196      H2202   1.107       .  S
C2197      H2203   1.085       .  S
C2197      C2198   1.362       .  D
C2198      C2210   1.489       .  S
C2199      H2204   1.076       .  S
C2199      C2200   1.374       .  D
C2205      C2211   1.541       .  S
C2205      C2209   1.552       .  S
C2205      C2304   1.547       .  S
C2206      H2213   1.087       .  S
C2206      C2207   1.361       .  D
C2207      C2208   1.538       .  S
C2207      C2220   1.479       .  S
C2208      H2214   1.107       .  S
C2209      H2215   1.081       .  S
C2209      C2210   1.361       .  D
C2211      C2212   1.374       .  D
C2217      C2218   1.403   1_655  A
C2217      C2222   1.412       .  A
C2218      C2219   1.400       .  A
C2219      C2220   1.415   1_455  A
C2220      C2221   1.398       .  A
C2221      C2222   1.398       .  A
C2221      H2228   1.082       .  S
C2222      S2224   1.793       .  S
S2224      H2225   1.406       .  S
C2229      C2230   1.397       .  A
C2229      C2234   1.411       .  A
C2230      C2231   1.395       .  A
C2230      H2239   1.084       .  S
C2231      C2232   1.422       .  A
C2231      S2235   1.804       .  S
C2232      C2233   1.405       .  A
C2233      C2234   1.403       .  A
C2233      H2240   1.083       .  S
C2234      S2236   1.796       .  S
S2235      H2238   1.403       .  S
S2236      H2237   1.406       .  S
C2241      C2242   1.409       .  A
C2241      C2246   1.417       .  A
C2242      C2243   1.403       .  A
C2242      H2251   1.084       .  S
C2243      C2244   1.411       .  A
C2243      S2247   1.802       .  S
C2244      C2245   1.402       .  A
C2245      C2246   1.404       .  A
C2245      H2252   1.084       .  S
C2246      S2248   1.796       .  S
S2247      H2250   1.404       .  S
S2248      H2249   1.406       .  S
C2253      C2254   1.404       .  A
C2254      C2255   1.395       .  A
C2254      H2263   1.082       .  S
C2255      C2256   1.408       .  A
C2255      S2259   1.799       .  S
C2257      C2258   1.399       .  A
C2257      H2264   1.084       .  S
C2258      S2260   1.805       .  S
S2259      H2262   1.406       .  S
S2260      H2261   1.407       .  S
C2265      C2266   1.395       .  A
C2265      C2270   1.407       .  A
C2266      C2267   1.394       .  A
C2267      C2268   1.431       .  A
C2268      C2269   1.411       .  A
C2269      C2270   1.401       .  A
C2269      H2276   1.081       .  S
C2270      S2272   1.799       .  S
S2272      H2273   1.406       .  S
C2277      C2278   1.409       .  A
C2277      C2282   1.423       .  A
C2278      C2279   1.404       .  A
C2278      H2287   1.079       .  S
C2279      C2280   1.416       .  A
C2279      S2283   1.802       .  S
C2280      C2281   1.402       .  A
C2281      C2282   1.399       .  A
C2281      H2288   1.080       .  S
C2282      S2284   1.814       .  S
S2283      H2286   1.408       .  S
S2284      H2285   1.406       .  S
C2289      C2290   1.403       .  A
C2290      C2291   1.394       .  A
C2290      H2299   1.084       .  S
C2291      C2292   1.414       .  A
C2291      S2295   1.806       .  S
C2292      C2293   1.404       .  A
C2294      S2640   1.807   1_455  S
S2295      H2298   1.404       .  S
S2296      C2638   1.807   1_654  S
S2296      H2297   1.407       .  S
C2301      C2306   1.421       .  A
C2302      C2303   1.405       .  A
C2302      H2311   1.082       .  S
C2303      S2307   1.810   1_565  S
C2304      C2305   1.410       .  A
C2305      C2306   1.403       .  A
S2307      H2310   1.407       .  S
C2313      C2314   1.406       .  A
C2313      C2318   1.420       .  A
C2314      C2315   1.404       .  A
C2315      C2316   1.424       .  A
C2316      C2317   1.405       .  A
C2317      C2318   1.391       .  A
S2319      H2322   1.407       .  S
S2320      H2321   1.408       .  S
C2325      C2326   1.401       .  A
C2325      C2330   1.414       .  A
C2326      C2671   1.385       .  A
C2326      H2335   1.083       .  S
C2327      C2670   1.386       .  A
C2327      C2672   1.414       .  A
C2327      S2331   1.806       .  S
C2328      C2463   1.474       .  S
C2328      C2671   1.414       .  A
C2328      C2329   1.404       .  A
C2329      C2330   1.404       .  A
C2329      H2336   1.084       .  S
C2330      S2332   1.802       .  S
S2331      H2334   1.396       .  S
S2332      H2333   1.406       .  S
C2337      C2342   1.409       .  A
C2338      C2339   1.398       .  A
C2338      H2347   1.082       .  S
C2339      S2343   1.812       .  S
C2340      C2341   1.414       .  A
C2341      C2342   1.401       .  A
C2341      H2348   1.077       .  S
C2342      S2344   1.801       .  S
S2343      H2346   1.407       .  S
S2344      H2345   1.404       .  S
C2349      C2350   1.401       .  A
C2349      C2354   1.408       .  A
C2350      C2351   1.403       .  A
C2351      C2352   1.424       .  A
C2352      C2353   1.413       .  A
C2353      C2354   1.396       .  A
C2353      H2360   1.084       .  S
C2354      S2356   1.804       .  S
S2355      H2358   1.408       .  S
S2356      H2357   1.403       .  S
C2361      C2362   1.403   1_655  A
C2361      C2366   1.415       .  A
C2362      C2363   1.408       .  A
C2363      C2364   1.429   1_455  A
C2364      C2365   1.410       .  A
C2365      C2366   1.396       .  A
C2365      H2372   1.081       .  S
C2366      S2368   1.799       .  S
S2367      H2370   1.407       .  S
S2368      H2369   1.402       .  S
C2373      C2428   1.499       .  S
C2373      C2718   1.410       .  A
C2373      C2378   1.419   1_655  A
C2374      C2717   1.410       .  A
C2374      C2375   1.394       .  A
C2374      H2383   1.083       .  S
C2375      C2720   1.406   1_554  A
C2375      S2379   1.803       .  S
C2376      C2719   1.406       .  A
C2376      C2377   1.404   1_655  A
C2377      C2378   1.407       .  A
C2377      H2384   1.084       .  S
C2378      S2380   1.801       .  S
S2379      H2382   1.405   1_655  S
S2380      H2381   1.406       .  S
C2385      C2386   1.412       .  A
C2385      C2390   1.418       .  A
C2386      C2387   1.393       .  A
C2386      H2395   1.082       .  S
C2387      C2388   1.409       .  A
C2387      S2391   1.797       .  S
C2388      C2389   1.407       .  A
C2389      C2390   1.407       .  A
C2389      H2396   1.084       .  S
C2390      S2392   1.799       .  S
S2391      H2394   1.405       .  S
S2392      H2393   1.404       .  S
C2397      C2742   1.400       .  A
C2397      C2402   1.415       .  A
C2398      C2741   1.400       .  A
C2398      C2399   1.399   1_556  A
C2398      H2407   1.084   1_556  S
C2399      C2744   1.412   1_554  A
C2399      S2403   1.797       .  S
C2400      C2743   1.412       .  A
C2400      C2401   1.402       .  A
C2401      C2402   1.394       .  A
C2401      H2408   1.084       .  S
C2402      S2404   1.807       .  S
S2403      H2406   1.407       .  S
S2404      H2405   1.407       .  S
C2409      C2410   1.539       .  S
C2409      C2415   1.537       .  S
C2409      C2413   1.548       .  S
C2409      C2729   1.541       .  S
C2410      H2417   1.083       .  S
C2410      C2411   1.372       .  D
C2411      C2412   1.543       .  S
C2411      C2468   1.499       .  S
C2412      C2416   1.530       .  S
C2412      C2414   1.540       .  S
C2413      H2419   1.084       .  S
C2413      C2414   1.371       .  D
C2414      C2426   1.488       .  S
C2415      H2420   1.086       .  S
C2415      C2416   1.354       .  D
C2416      C2741   1.474       .  S
C2421      C2422   1.535       .  S
C2421      C2427   1.530       .  S
C2421      C2425   1.547       .  S
C2421      C2708   1.544       .  S
C2423      C2424   1.549       .  S
C2424      C2426   1.539       .  S
C2424      H2430   1.106       .  S
C2425      H2431   1.085       .  S
C2427      H2432   1.087       .  S
C2427      C2428   1.365       .  D
O2433     Ni2441   1.893       .  S
O2433      C2443   1.278       .  A
O2434      C2444   1.278       .  A
O2435     Ni2441   1.923       .  S
O2435      C2445   1.283       .  A
O2436      C2446   1.283       .  A
O2437      C2446   1.280       .  A
O2438     Ni2442   1.911       .  S
O2438      C2445   1.279       .  A
O2439      C2444   1.283       .  A
O2440     Ni2442   1.923       .  S
O2440      C2443   1.282       .  A
Ni2441    Ni2442   2.390       .  S
C2443      C2669   1.473       .  S
C2444      C2744   1.473       .  S
C2445      C2693   1.472       .  S
C2446      C2681   1.479       .  S
O2447     Ni2455   1.903       .  S
O2447      C2457   1.276       .  A
O2449      C2459   1.283       .  A
O2450     Ni2455   1.926       .  S
O2451     Ni2456   1.910       .  S
O2451      C2460   1.280       .  A
O2453      C2458   1.286       .  A
O2454     Ni2456   1.934       .  S
C2457      C2645   1.497       .  S
C2458      C2657   1.490       .  S
C2459      C2720   1.475       .  S
C2460      C2633   1.481       .  S
C2461      C2462   1.529       .  S
C2461      C2467   1.533       .  S
C2461      C2465   1.552       .  S
C2461      C2621   1.538       .  S
C2462      H2469   1.087       .  S
C2462      C2463   1.354       .  D
C2464      C2468   1.547       .  S
C2464      C2466   1.537       .  S
C2464      H2470   1.107       .  S
C2465      H2471   1.082       .  S
C2466      C2478   1.486       .  S
C2467      H2472   1.081       .  S
C2473      C2474   1.530       .  S
C2473      C2479   1.536       .  S
C2473      C2477   1.553       .  S
C2473      C2612   1.534       .  S
C2474      H2481   1.084       .  S
C2474      C2475   1.357       .  D
C2475      C2476   1.537       .  S
C2475      C2636   1.482       .  S
C2476      C2480   1.542       .  S
C2476      C2478   1.538       .  S
C2477      H2483   1.085       .  S
C2477      C2478   1.370       .  D
C2479      C2480   1.365       .  D
C2485      C2486   1.542       .  S
C2485      C2491   1.543       .  S
C2485      C2489   1.535       .  S
C2485      C2660   1.536       .  S
C2486      C2487   1.372       .  D
C2487      C2488   1.540       .  S
C2488      C2492   1.534       .  S
C2488      C2490   1.541       .  S
C2488      H2494   1.103       .  S
C2489      H2495   1.080       .  S
C2489      C2490   1.359       .  D
C2490      C2502   1.477       .  S
C2491      H2496   1.085       .  S
C2491      C2492   1.363       .  D
C2492      C2597   1.485       .  S
C2497      C2498   1.549       .  S
C2497      C2503   1.542       .  S
C2497      C2501   1.532       .  S
C2497      C2696   1.539       .  S
C2498      H2505   1.076       .  S
C2498      C2499   1.371       .  D
C2499      C2500   1.552       .  S
C2499      C2544   1.508       .  S
C2500      C2504   1.548       .  S
C2500      C2502   1.540       .  S
C2500      H2506   1.106       .  S
C2501      H2507   1.087       .  S
C2501      C2502   1.356       .  D
C2503      H2508   1.086       .  S
C2503      C2504   1.366       .  D
C2504      C2585   1.500       .  S
O2509     Ni2517   1.914       .  S
O2509      C2519   1.280       .  A
O2510     Ni2517   1.923       .  S
O2510      C2520   1.282       .  A
O2511     Ni2517   1.928       .  S
O2511      C2521   1.282       .  A
O2512     Ni2517   1.927       .  S
O2512      C2522   1.283       .  A
O2513     Ni2518   1.919       .  S
O2513      C2522   1.281       .  A
O2514     Ni2518   1.916       .  S
O2514      C2521   1.281       .  A
O2515     Ni2518   1.915       .  S
O2515      C2520   1.283       .  A
O2516     Ni2518   1.922       .  S
O2516      C2519   1.282       .  A
Ni2517    Ni2518   2.386       .  S
C2519      C2732   1.485       .  S
C2520      C2624   1.491       .  S
C2521      C2573   1.477       .  S
C2522      C2588   1.483       .  S
O2523     Ni2531   1.924       .  S
O2523      C2533   1.283       .  A
O2524     Ni2531   1.931       .  S
O2525     Ni2531   1.917       .  S
O2525      C2535   1.282       .  A
O2526     Ni2531   1.915       .  S
O2527     Ni2532   1.911       .  S
O2527      C2536   1.282       .  A
O2528     Ni2532   1.914       .  S
O2529     Ni2532   1.909       .  S
O2529      C2534   1.278       .  A
O2530     Ni2532   1.907       .  S
C2533      C2609   1.472       .  S
C2534      C2705   1.493       .  S
C2535      C2600   1.470       .  S
C2536      C2561   1.480       .  S
C2537      C2543   1.545       .  S
C2537      C2541   1.544       .  S
C2537      C2684   1.540       .  S
C2538      H2545   1.085       .  S
C2538      C2539   1.358       .  D
C2539      C2540   1.544       .  S
C2539      C2576   1.493       .  S
C2540      H2546   1.107       .  S
C2541      H2547   1.085       .  S
C2541      C2542   1.362       .  D
C2542      C2554   1.489       .  S
C2543      H2548   1.076       .  S
C2543      C2544   1.373       .  D
C2549      C2555   1.541       .  S
C2549      C2553   1.553       .  S
C2549      C2648   1.547       .  S
C2550      H2557   1.087       .  S
C2550      C2551   1.361       .  D
C2551      C2552   1.537       .  S
C2551      C2564   1.478       .  S
C2552      H2558   1.107       .  S
C2553      H2559   1.081       .  S
C2553      C2554   1.361       .  D
C2555      C2556   1.374       .  D
C2561      C2562   1.403   1_655  A
C2561      C2566   1.411       .  A
C2562      C2563   1.399       .  A
C2563      C2564   1.415   1_455  A
C2564      C2565   1.397       .  A
C2565      C2566   1.397       .  A
C2565      H2572   1.082       .  S
C2566      S2568   1.792       .  S
S2568      H2569   1.406       .  S
C2573      C2574   1.397       .  A
C2573      C2578   1.411       .  A
C2574      C2575   1.396       .  A
C2574      H2583   1.084       .  S
C2575      C2576   1.423       .  A
C2575      S2579   1.805       .  S
C2576      C2577   1.405       .  A
C2577      C2578   1.403       .  A
C2577      H2584   1.083       .  S
C2578      S2580   1.796       .  S
S2579      H2582   1.403       .  S
S2580      H2581   1.406       .  S
C2585      C2586   1.410       .  A
C2585      C2590   1.417       .  A
C2586      C2587   1.404       .  A
C2586      H2595   1.084       .  S
C2587      C2588   1.411       .  A
C2587      S2591   1.802       .  S
C2588      C2589   1.402       .  A
C2589      C2590   1.404       .  A
C2589      H2596   1.084       .  S
C2590      S2592   1.796       .  S
S2591      H2594   1.404       .  S
S2592      H2593   1.406       .  S
C2597      C2598   1.404       .  A
C2598      C2599   1.395       .  A
C2598      H2607   1.082       .  S
C2599      C2600   1.408       .  A
C2599      S2603   1.799       .  S
C2601      C2602   1.399       .  A
C2601      H2608   1.084       .  S
C2602      S2604   1.805       .  S
S2603      H2606   1.406       .  S
S2604      H2605   1.407       .  S
C2609      C2610   1.395       .  A
C2609      C2614   1.407       .  A
C2610      C2611   1.394       .  A
C2611      C2612   1.431       .  A
C2612      C2613   1.411       .  A
C2613      C2614   1.401       .  A
C2613      H2620   1.081       .  S
C2614      S2616   1.798       .  S
S2616      H2617   1.406       .  S
C2621      C2622   1.409       .  A
C2621      C2626   1.423       .  A
C2622      C2623   1.404       .  A
C2622      H2631   1.079       .  S
C2623      C2624   1.416       .  A
C2623      S2627   1.802       .  S
C2624      C2625   1.402       .  A
C2625      C2626   1.399       .  A
C2625      H2632   1.080       .  S
C2626      S2628   1.814       .  S
S2627      H2630   1.408       .  S
S2628      H2629   1.406       .  S
C2633      C2634   1.402       .  A
C2634      C2635   1.394       .  A
C2634      H2643   1.084       .  S
C2635      C2636   1.415       .  A
C2635      S2639   1.807       .  S
C2636      C2637   1.404       .  A
S2639      H2642   1.404       .  S
S2640      H2641   1.407       .  S
C2645      C2650   1.421       .  A
C2646      C2647   1.405       .  A
C2646      H2655   1.083       .  S
C2647      S2651   1.810   1_565  S
C2648      C2649   1.410       .  A
C2649      C2650   1.402       .  A
S2651      H2654   1.407   1_545  S
C2657      C2658   1.406       .  A
C2657      C2662   1.420       .  A
C2658      C2659   1.404       .  A
C2659      C2660   1.424       .  A
C2660      C2661   1.405       .  A
C2661      C2662   1.391       .  A
S2663      H2666   1.407       .  S
S2664      H2665   1.408       .  S
C2669      C2670   1.401   1_556  A
C2669      C2674   1.414       .  A
C2670      H2679   1.083       .  S
C2671      S2675   1.806       .  S
C2672      C2673   1.404   1_554  A
C2673      C2674   1.403       .  A
C2673      H2680   1.084       .  S
C2674      S2676   1.802       .  S
S2675      H2678   1.396       .  S
S2676      H2677   1.406       .  S
C2681      C2686   1.409       .  A
C2682      C2683   1.398       .  A
C2682      H2691   1.082       .  S
C2683      S2687   1.811       .  S
C2684      C2685   1.414       .  A
C2685      C2686   1.400       .  A
C2685      H2692   1.077       .  S
C2686      S2688   1.800       .  S
S2687      H2690   1.407       .  S
S2688      H2689   1.404       .  S
C2693      C2694   1.401       .  A
C2693      C2698   1.407       .  A
C2694      C2695   1.403       .  A
C2695      C2696   1.425       .  A
C2696      C2697   1.413       .  A
C2697      C2698   1.396       .  A
C2697      H2704   1.084       .  S
C2698      S2700   1.803       .  S
S2699      H2702   1.408       .  S
S2700      H2701   1.403       .  S
C2705      C2706   1.403   1_655  A
C2705      C2710   1.415       .  A
C2706      C2707   1.408       .  A
C2707      C2708   1.429   1_455  A
C2708      C2709   1.410       .  A
C2709      C2710   1.396       .  A
C2709      H2716   1.081       .  S
C2710      S2712   1.799       .  S
S2711      H2714   1.406       .  S
S2712      H2713   1.401       .  S
C2717      C2722   1.419   1_654  A
C2718      C2719   1.394       .  A
C2718      H2727   1.083       .  S
C2719      S2723   1.803       .  S
C2720      C2721   1.404   1_655  A
C2721      C2722   1.407       .  A
C2721      H2728   1.084       .  S
C2722      S2724   1.801       .  S
S2723      H2726   1.405   1_655  S
S2724      H2725   1.406       .  S
C2729      C2730   1.412       .  A
C2729      C2734   1.418       .  A
C2730      C2731   1.393       .  A
C2730      H2739   1.082       .  S
C2731      C2732   1.409       .  A
C2731      S2735   1.797       .  S
C2732      C2733   1.407       .  A
C2733      C2734   1.407       .  A
C2733      H2740   1.084       .  S
C2734      S2736   1.799       .  S
S2735      H2738   1.405       .  S
S2736      H2737   1.404       .  S
C2741      C2746   1.415       .  A
C2742      C2743   1.399       .  A
C2742      H2751   1.084       .  S
C2743      S2747   1.797       .  S
C2744      C2745   1.402       .  A
C2745      C2746   1.394       .  A
C2745      H2752   1.084       .  S
C2746      S2748   1.807       .  S
S2747      H2750   1.407       .  S
S2748      H2749   1.407       .  S
