geometry optimzed in LAMMPS
_audit_creation_date              2020-11-30 
_audit_creation_method            'lammps2cif' 
_symmetry_space_group_name_H-M    'P1' 
_symmetry_Int_Tables_number       1 
_symmetry_cell_setting            triclinic 
loop_ 
_symmetry_equiv_pos_as_xyz 
  x,y,z 
_cell_length_a                    29.91303578 
_cell_length_b                    51.31916289262447 
_cell_length_c                    25.86497384323108 
_cell_angle_alpha                 92.39793542936124 
_cell_angle_beta                  91.15644180512236 
_cell_angle_gamma                 81.79563484075561 
loop_ 
_atom_site_label 
_atom_site_type_symbol 
_atom_site_fract_x 
_atom_site_fract_y 
_atom_site_fract_z 
_atom_site_charge 
N1          N  0.30012469  0.34872788  0.29680901    -0.03300
C2          C  0.34510106  0.34276756  0.30684921    -0.00700
C3          C  0.35599460  0.31603971  0.31447790    -0.23600
C4          C  0.31674734  0.30520124  0.30840160    -0.23800
C5          C  0.28314864  0.32567055  0.29778209    -0.00900
H6          H  0.38939564  0.30530112  0.32071561     0.12900
H7          H  0.31318422  0.28458903  0.31060261     0.13000
N8          N  0.38987915  0.68905393  0.24905921    -0.03300
C9          C  0.43521441  0.68235605  0.25688137    -0.00700
C10         C  0.44514365  0.65558584  0.26484716    -0.23600
C11         C  0.40512377  0.64549604  0.26224469    -0.23800
C12         C  0.37193276  0.66628535  0.25264563    -0.00900
H13         H  0.47822493  0.64434448  0.27047187     0.12900
H14         H  0.40065011  0.62515320  0.26667858     0.13000
N15         N  0.74771029  0.77007322  0.22126366    -0.03300
C16         C  0.70285343  0.77598631  0.20987863    -0.00700
C17         C  0.69137382  0.80293658  0.20557279    -0.23600
C18         C  0.72999475  0.81400670  0.21486269    -0.23800
C19         C  0.76393342  0.79351482  0.22416810    -0.00900
H20         H  0.65806667  0.81355042  0.19822807     0.12900
H21         H  0.73311746  0.83475184  0.21449900     0.13000
O22         O  0.97425681  0.59242349  0.29034062    -0.72800
O23         O  0.06920109  0.52833890  0.29996152    -0.73800
O24         O  0.07009256  0.58346589  0.29236143    -0.62000
O25         O  0.97287682  0.53700455  0.29794190    -0.70800
O26         O  0.97371841  0.53163917  0.21249285    -0.70400
O27         O  0.06952658  0.57908319  0.20676758    -0.61600
O28         O  0.06962756  0.52372223  0.21441775    -0.74100
O29         O  0.97304050  0.58702466  0.20486200    -0.72900
Cu30       Cu  0.02153576  0.56046871  0.29808867     1.04600
Cu31       Cu  0.02146448  0.55522414  0.20667169     1.04300
C32         C  0.95881502  0.59995149  0.24610018     0.93400
C33         C  0.08448022  0.51586929  0.25868631     0.92500
C34         C  0.08526803  0.58863126  0.24866571     0.84700
C35         C  0.95814932  0.52676223  0.25617934     0.90900
N36         N  0.66330309  0.41840151  0.24600053    -0.03300
C37         C  0.61938328  0.42316455  0.23016749    -0.00700
C38         C  0.60882100  0.44903886  0.21575661    -0.23600
C39         C  0.64725053  0.46055841  0.22280605    -0.23800
C40         C  0.67997682  0.44141553  0.24134473    -0.00900
H41         H  0.57617082  0.45879095  0.20316466     0.12900
H42         H  0.65104655  0.48067692  0.21502406     0.13000
C43         C  0.98689724  0.25512842  0.26470629     0.86600
C44         C  0.98383920  0.23644956  0.30901946    -0.53600
C45         C  0.94416461  0.22623145  0.30989653     0.09500
C46         C  0.91067342  0.23546542  0.26604050     0.20500
C47         C  0.97741348  0.23862794  0.21539602    -0.54300
C48         C  0.93788007  0.22830385  0.21625259     0.09600
C49         C  0.94480614  0.27586974  0.27020196    -0.53900
C50         C  0.90502315  0.26583844  0.27106615     0.10200
H51         H  0.01050534  0.23201740  0.33779737     0.14700
H52         H  0.87839094  0.22715275  0.26676838     0.00500
H53         H  0.99940886  0.23462678  0.18247243     0.15000
H54         H  0.94634222  0.29691458  0.27306657     0.14800
C55         C  0.06754336  0.85694966  0.25917573     0.86600
C56         C  0.07859746  0.87235661  0.30921287    -0.53600
C57         C  0.11916482  0.88154041  0.30870941     0.09500
C58         C  0.14580433  0.87438316  0.25854012     0.20500
C59         C  0.07213614  0.87589883  0.21570217    -0.54300
C60         C  0.11286230  0.88496263  0.21519783     0.09600
C61         C  0.10823980  0.83524401  0.25270379    -0.53900
C62         C  0.14917768  0.84411485  0.25199830     0.10200
H63         H  0.05709394  0.87624354  0.34257652     0.14700
H64         H  0.17887344  0.88183599  0.25808623     0.00500
H65         H  0.04580748  0.88115450  0.18689863     0.15000
H66         H  0.10484865  0.81444566  0.24900005     0.14800
N67         N  0.94853904  0.17681064  0.40677105    -0.27200
N68         N  0.92555795  0.19741451  0.43141674    -0.35000
C69         C  0.91666660  0.21728601  0.39870867     0.01200
C70         C  0.93469727  0.20888333  0.35110475     0.07200
C71         C  0.95516425  0.18325012  0.35779485    -0.05900
H72         H  0.90196913  0.23714471  0.41006258     0.07900
H73         H  0.97611994  0.17089640  0.33022217     0.09100
Cu74       Cu  0.91323672  0.19819130  0.01060751     0.44200
Cu75       Cu  0.97473199  0.14201296  0.44287191     0.42000
Cu76       Cu  0.96112350  0.14109873  0.07902588     0.43900
N77         N  0.91831549  0.19793298  0.09088835    -0.34500
N78         N  0.93611246  0.17703065  0.11628335    -0.28800
C79         C  0.94086479  0.18425435  0.16658680    -0.04900
C80         C  0.92494532  0.21089127  0.17331965     0.07300
C81         C  0.91152033  0.21891201  0.12428019     0.01100
H82         H  0.95875088  0.17172353  0.19514062     0.08800
H83         H  0.90175706  0.23900183  0.11291174     0.07800
N84         N  0.98791683  0.10811725  0.03351749    -0.36000
N85         N  0.99052245  0.10774324  0.98244189    -0.28200
C86         C  0.01602415  0.08535798  0.47206624    -0.03400
C87         C  0.02077225  0.06816883  0.00811583     0.05200
C88         C  0.00597932  0.08436066  0.05038087     0.03300
H89         H  0.02396360  0.07957875  0.43222932     0.08400
H90         H  0.00849715  0.07932778  0.09063349     0.07200
N91         N  0.12472922  0.93172316  0.40952760    -0.27200
N92         N  0.13866440  0.91028813  0.43529674    -0.35000
C93         C  0.14389355  0.88933079  0.40179605     0.01200
C94         C  0.13360492  0.89792023  0.35236814     0.07200
C95         C  0.12113180  0.92489153  0.35891214    -0.05900
H96         H  0.15021878  0.86906647  0.41314791     0.07900
H97         H  0.10582454  0.93806763  0.32988567     0.09100
Cu98       Cu  0.14711066  0.90994202  0.01425975     0.44200
Cu99       Cu  0.10173271  0.96807426  0.44584508     0.42000
Cu100      Cu  0.09681059  0.96953241  0.08229476     0.43900
N101        N  0.13633649  0.91244000  0.09356878    -0.34500
N102        N  0.11722163  0.93402728  0.11867704    -0.28800
C103        C  0.10918750  0.92800620  0.16759688    -0.04900
C104        C  0.12459690  0.90151207  0.17363184     0.07300
C105        C  0.14112579  0.89227131  0.12579380     0.01100
H106        H  0.09064093  0.94142306  0.19555629     0.08800
H107        H  0.15231585  0.87193918  0.11409609     0.07800
N108        N  0.07449547  0.00140787  0.03588181    -0.36000
N109        N  0.07720882  0.00053038  0.98478620    -0.28200
C110        C  0.06011923  0.02540806  0.47366508    -0.03400
C111        C  0.04348332  0.04053055  0.00878557     0.05200
C112        C  0.05421185  0.02547991  0.05176179     0.03300
H113        H  0.06099020  0.03083742  0.43376525     0.08400
H114        H  0.04748197  0.03151635  0.09175082     0.07200
C115        C  0.68960674  0.39348505  0.25751588    -0.01200
C116        C  0.71604845  0.39107485  0.30271011    -0.09200
C117        C  0.74723722  0.36853474  0.31049388    -0.18000
C118        C  0.75353863  0.34768565  0.27255398     0.04400
C119        C  0.72514798  0.34980399  0.22765851     0.18600
C120        C  0.69323407  0.37243848  0.22089265    -0.19400
C121        C  0.73012711  0.32984154  0.18875786    -0.20700
C122        C  0.76381211  0.30825246  0.19242275    -0.19200
C123        C  0.79341158  0.30600877  0.23512861     0.20000
C124        C  0.78814396  0.32542307  0.27638812     0.02100
C125        C  0.81909067  0.32226459  0.31851668    -0.14000
C126        C  0.85542237  0.30188071  0.31786592    -0.11700
C127        C  0.86156098  0.28357675  0.27607373     0.01600
C128        C  0.82960082  0.28513864  0.23567433    -0.23900
H129        H  0.71323121  0.40707910  0.33159636     0.09600
H130        H  0.76680507  0.36838964  0.34597911     0.13200
H131        H  0.67294813  0.37441260  0.18568117     0.11900
H132        H  0.70852812  0.33126805  0.15454252     0.13100
H133        H  0.76746896  0.29352703  0.16094110     0.12100
H134        H  0.81713213  0.33576067  0.35175472     0.09200
H135        H  0.87988931  0.30089808  0.34944299     0.12500
H136        H  0.83465087  0.27112911  0.20300953     0.14300
C137        C  0.72714162  0.44582639  0.24986610    -0.01200
C138        C  0.74037474  0.45647489  0.29736741    -0.09200
C139        C  0.78132869  0.46655170  0.30243413    -0.18000
C140        C  0.80962977  0.46694557  0.25929877     0.04400
C141        C  0.79641649  0.45520422  0.21161481     0.18600
C142        C  0.75578510  0.44449129  0.20759972    -0.19400
C143        C  0.82241851  0.45561606  0.16740011    -0.20700
C144        C  0.86003114  0.46870137  0.16864267    -0.19200
C145        C  0.87299194  0.48134275  0.21436607     0.20000
C146        C  0.84901285  0.47986866  0.26083519     0.02100
C147        C  0.86467091  0.49219862  0.30627968    -0.14000
C148        C  0.90070338  0.50675133  0.30484279    -0.11700
C149        C  0.92245096  0.50948926  0.25828475     0.01600
C150        C  0.90909461  0.49609608  0.21346434    -0.23900
H151        H  0.71793646  0.45810151  0.33006992     0.09600
H152        H  0.78873305  0.47506831  0.33986080     0.13200
H153        H  0.74484020  0.43670471  0.17055342     0.11900
H154        H  0.81263966  0.44657698  0.13105200     0.13100
H155        H  0.87853909  0.46943199  0.13327031     0.12100
H156        H  0.84943933  0.49124377  0.34341972     0.09200
H157        H  0.91086835  0.51641867  0.34029274     0.12500
H158        H  0.92622754  0.49757363  0.17738725     0.14300
C159        C  0.81129320  0.79757552  0.23316109    -0.01200
C160        C  0.84415280  0.78865018  0.19644891    -0.09200
C161        C  0.88701714  0.79654085  0.20049986    -0.18000
C162        C  0.89809257  0.81360686  0.24182248     0.04400
C163        C  0.86517379  0.82115638  0.28057413     0.18600
C164        C  0.82214790  0.81340588  0.27552581    -0.19400
C165        C  0.87492518  0.83696553  0.32350510    -0.20700
C166        C  0.91648436  0.84597674  0.32836399    -0.19200
C167        C  0.94892680  0.83995665  0.28979232     0.20000
C168        C  0.94019203  0.82379116  0.24583222     0.02100
C169        C  0.97336330  0.81929123  0.20713763    -0.14000
C170        C  0.01343297  0.83028160  0.21209830    -0.11700
C171        C  0.02263401  0.84582287  0.25599660     0.01600
C172        C  0.98973540  0.85049974  0.29471110    -0.23900
H173        H  0.83600880  0.77643454  0.16338777     0.09600
H174        H  0.91053248  0.78922130  0.17048862     0.13200
H175        H  0.79651708  0.82022368  0.30397059     0.11900
H176        H  0.85011815  0.84254600  0.35339040     0.13100
H177        H  0.92290015  0.85825685  0.36206268     0.12100
H178        H  0.96898121  0.80778310  0.17206168     0.09200
H179        H  0.03773406  0.82653408  0.18123035     0.12500
H180        H  0.99460636  0.86275561  0.32861778     0.14300
C181        C  0.77398238  0.74438062  0.22620316    -0.01200
C182        C  0.77105350  0.72442978  0.18826835    -0.09200
C183        C  0.79917903  0.70021879  0.19047053    -0.18000
C184        C  0.83132893  0.69515330  0.23109553     0.04400
C185        C  0.83309108  0.71526315  0.27036016     0.18600
C186        C  0.80467645  0.73950721  0.26750936    -0.19400
C187        C  0.86353448  0.71118344  0.31201627    -0.20700
C188        C  0.89248473  0.68756413  0.31558198    -0.19200
C189        C  0.89224785  0.66751125  0.27722372     0.20000
C190        C  0.86192112  0.67102835  0.23416515     0.02100
C191        C  0.86422028  0.65040724  0.19576626    -0.14000
C192        C  0.89547882  0.62748097  0.19980515    -0.11700
C193        C  0.92491868  0.62401658  0.24258879     0.01600
C194        C  0.92272616  0.64407745  0.28138242    -0.23900
H195        H  0.74762524  0.72788744  0.15600958     0.09600
H196        H  0.79512320  0.68591586  0.15963916     0.13200
H197        H  0.80656507  0.75479297  0.29736227     0.11900
H198        H  0.86501458  0.72640603  0.34208196     0.13100
H199        H  0.91563235  0.68507795  0.34837671     0.12100
H200        H  0.84276910  0.65156975  0.16169847     0.09200
H201        H  0.89645385  0.61228872  0.16932770     0.12500
H202        H  0.94573237  0.64175265  0.31435803     0.14300
C203        C  0.47129159  0.69923514  0.25234323    -0.01200
C204        C  0.47006669  0.71734630  0.21322014    -0.09200
C205        C  0.50820403  0.72919507  0.20304753    -0.18000
C206        C  0.54909339  0.72301958  0.23156263     0.04400
C207        C  0.54937204  0.70551733  0.27266396     0.18600
C208        C  0.51079486  0.69399062  0.28265165    -0.19400
C209        C  0.58836726  0.69925304  0.30313547    -0.20700
C210        C  0.62708638  0.71042809  0.29433147    -0.19200
C211        C  0.62808792  0.72776839  0.25420039     0.20000
C212        C  0.58949138  0.73376483  0.22134839     0.02100
C213        C  0.59297889  0.75043484  0.17999970    -0.14000
C214        C  0.63159386  0.76234223  0.17424666    -0.11700
C215        C  0.66818813  0.75796996  0.20901344     0.01600
C216        C  0.66689870  0.73990129  0.24786224    -0.23900
H217        H  0.44035688  0.72144807  0.18869474     0.09600
H218        H  0.50481054  0.74282875  0.17217250     0.13200
H219        H  0.51195396  0.68017355  0.31341946     0.11900
H220        H  0.58877467  0.68580462  0.33441937     0.13100
H221        H  0.65639324  0.70557047  0.31926933     0.12100
H222        H  0.56610891  0.75508295  0.15207571     0.09200
H223        H  0.63212214  0.77599273  0.14349137     0.12500
H224        H  0.69481850  0.73656400  0.27527350     0.14300
C225        C  0.36427488  0.71485258  0.24267636    -0.01200
C226        C  0.36841933  0.73570327  0.27837905    -0.09200
C227        C  0.33807228  0.75925426  0.27709569    -0.18000
C228        C  0.30194837  0.76235486  0.24049856     0.04400
C229        C  0.29945297  0.74144630  0.20312899     0.18600
C230        C  0.33112820  0.71850353  0.20374218    -0.19400
C231        C  0.26409674  0.74290710  0.16669890    -0.20700
C232        C  0.22972605  0.76414489  0.16796857    -0.19200
C233        C  0.23029712  0.78472886  0.20504545     0.20000
C234        C  0.26707780  0.78471095  0.24080636     0.02100
C235        C  0.26629790  0.80667219  0.27609734    -0.14000
C236        C  0.22915835  0.82680706  0.27788636    -0.11700
C237        C  0.19176594  0.82554923  0.24491806     0.01600
C238        C  0.19332967  0.80489339  0.20756096    -0.23900
H239        H  0.39399268  0.73331011  0.30868551     0.09600
H240        H  0.34247763  0.77422033  0.30655029     0.13200
H241        H  0.32886828  0.70283621  0.17493779     0.11900
H242        H  0.26212380  0.72702394  0.13813842     0.13100
H243        H  0.20199207  0.76421483  0.14032349     0.12100
H244        H  0.29350057  0.80851774  0.30341326     0.09200
H245        H  0.22874435  0.84274437  0.30675672     0.12500
H246        H  0.16486252  0.80414408  0.18114272     0.14300
C247        C  0.12203347  0.60518262  0.24673713    -0.01200
C248        C  0.14054083  0.61002789  0.19933131    -0.09200
C249        C  0.17778859  0.62358115  0.19752531    -0.18000
C250        C  0.19818375  0.63261448  0.24344005     0.04400
C251        C  0.17787078  0.62884165  0.29127987     0.18600
C252        C  0.14020505  0.61533473  0.29248744    -0.19400
C253        C  0.19611864  0.63781768  0.33785219    -0.20700
C254        C  0.23529551  0.64950714  0.33820689    -0.19200
C255        C  0.25741349  0.65234019  0.29205403     0.20000
C256        C  0.23883183  0.64434370  0.24383502     0.02100
C257        C  0.26315439  0.64709863  0.19847310    -0.14000
C258        C  0.30532312  0.65579656  0.20132177    -0.11700
C259        C  0.32374016  0.66304356  0.24894223     0.01600
C260        C  0.29928210  0.66183406  0.29406172    -0.23900
H261        H  0.12679493  0.60281614  0.16330832     0.09600
H262        H  0.19024412  0.62627336  0.15961914     0.13200
H263        H  0.12587087  0.61205898  0.32941860     0.11900
H264        H  0.18055700  0.63523166  0.37440824     0.13100
H265        H  0.24916112  0.65564508  0.37505166     0.12100
H266        H  0.25159339  0.64151406  0.16044841     0.09200
H267        H  0.32454898  0.65583612  0.16628126     0.12500
H268        H  0.31424551  0.66677016  0.33110793     0.14300
C269        C  0.38037869  0.35971692  0.29980354    -0.01200
C270        C  0.38148665  0.37341177  0.25435161    -0.09200
C271        C  0.42087058  0.38299040  0.24038255    -0.18000
C272        C  0.46055133  0.37895520  0.27160398     0.04400
C273        C  0.45798669  0.36678086  0.31955884     0.18600
C274        C  0.41822927  0.35728890  0.33303264    -0.19400
C275        C  0.49553792  0.36340087  0.35306743    -0.20700
C276        C  0.53574081  0.37201081  0.34011573    -0.19200
C277        C  0.53973982  0.38363789  0.29277321     0.20000
C278        C  0.50253877  0.38665988  0.25724375     0.02100
C279        C  0.50903832  0.39730437  0.20893796    -0.14000
C280        C  0.54915092  0.40685668  0.19850827    -0.11700
C281        C  0.58422827  0.40590511  0.23540340     0.01600
C282        C  0.58014988  0.39321020  0.28156603    -0.23900
H283        H  0.35292923  0.37517658  0.22771546     0.09600
H284        H  0.41949827  0.39298027  0.20444292     0.13200
H285        H  0.41743099  0.34669558  0.36836016     0.11900
H286        H  0.49371680  0.35416237  0.38975192     0.13100
H287        H  0.56392263  0.36953327  0.36730721     0.12100
H288        H  0.48342090  0.39905736  0.17890439     0.09200
H289        H  0.55191714  0.41631076  0.16225270     0.12500
H290        H  0.60701625  0.39254288  0.31044150     0.14300
C291        C  0.23583481  0.32195888  0.28810464    -0.01200
C292        C  0.20336518  0.32966096  0.32583730    -0.09200
C293        C  0.16102595  0.32111893  0.32175402    -0.18000
C294        C  0.15026805  0.30451953  0.27952345     0.04400
C295        C  0.18249627  0.29857979  0.23950491     0.18600
C296        C  0.22491129  0.30710902  0.24440116    -0.19400
C297        C  0.17293596  0.28330663  0.19573926    -0.20700
C298        C  0.13256394  0.27294516  0.19155408    -0.19200
C299        C  0.10117867  0.27712177  0.23152544     0.20000
C300        C  0.10941781  0.29302838  0.27603840     0.02100
C301        C  0.07720496  0.29587235  0.31580723    -0.14000
C302        C  0.03869364  0.28336590  0.31150189    -0.11700
C303        C  0.03026204  0.26779118  0.26735445     0.01600
C304        C  0.06198670  0.26498116  0.22739168    -0.23900
H305        H  0.21158853  0.34121645  0.35980958     0.09600
H306        H  0.13784302  0.32735332  0.35270183     0.13200
H307        H  0.25028072  0.30129916  0.21515170     0.11900
H308        H  0.19715115  0.27901454  0.16485156     0.13100
H309        H  0.12639559  0.26096401  0.15734176     0.12100
H310        H  0.08119391  0.30723702  0.35117435     0.09200
H311        H  0.01500588  0.28593141  0.34307523     0.12500
H312        H  0.05728877  0.25318207  0.19280122     0.14300
C313        C  0.11907129  0.49203057  0.26210235    -0.01200
C314        C  0.13045710  0.47575791  0.21805087    -0.09200
C315        C  0.16157845  0.45275990  0.22109993    -0.18000
C316        C  0.18281014  0.44518869  0.26861055     0.04400
C317        C  0.17224590  0.46213728  0.31293278     0.18600
C318        C  0.14048299  0.48510806  0.30940977    -0.19400
C319        C  0.19328759  0.45599705  0.36062353    -0.20700
C320        C  0.22446319  0.43331008  0.36541154    -0.19200
C321        C  0.23489455  0.41589089  0.32285511     0.20000
C322        C  0.21394830  0.42143824  0.27384838     0.02100
C323        C  0.22428010  0.40261119  0.23265760    -0.14000
C324        C  0.25354253  0.37923664  0.24009436    -0.11700
C325        C  0.27430722  0.37409513  0.28817536     0.01600
C326        C  0.26527889  0.39257264  0.32930352    -0.23900
H327        H  0.11478132  0.48062488  0.18092218     0.09600
H328        H  0.16841643  0.44136626  0.18546396     0.13200
H329        H  0.13242800  0.49763029  0.34373028     0.11900
H330        H  0.18557123  0.46885579  0.39454450     0.13100
H331        H  0.24005976  0.42916173  0.40292502     0.12100
H332        H  0.20931787  0.40501314  0.19459209     0.09200
H333        H  0.25963677  0.36480581  0.20834879     0.12500
H334        H  0.28055056  0.38816775  0.36689137     0.14300
N335        N  0.30694068  0.34143251  0.77614563    -0.03300
C336        C  0.35236085  0.33684103  0.78488030    -0.00700
C337        C  0.36534451  0.31103796  0.79819303    -0.23600
C338        C  0.32704901  0.29923965  0.79733390    -0.23800
C339        C  0.29150187  0.31815046  0.78367602    -0.00900
H340        H  0.39936756  0.30149344  0.80576219     0.12900
H341        H  0.32539798  0.27892349  0.80577227     0.13000
N342        N  0.39227636  0.68455187  0.74323129    -0.03300
C343        C  0.43740237  0.67806581  0.75227002    -0.00700
C344        C  0.44794323  0.65117678  0.75808055    -0.23600
C345        C  0.40825538  0.64076766  0.75310900    -0.23800
C346        C  0.37477490  0.66156068  0.74422466    -0.00900
H347        H  0.48109126  0.64025519  0.76498604     0.12900
H348        H  0.40403106  0.62034093  0.75691236     0.13000
N349        N  0.75321549  0.76432580  0.74619339    -0.03300
C350        C  0.70866345  0.77078801  0.73416401    -0.00700
C351        C  0.69773437  0.79781375  0.73162978    -0.23600
C352        C  0.73658834  0.80841030  0.74269552    -0.23800
C353        C  0.77010941  0.78752609  0.75123780    -0.00900
H354        H  0.66473161  0.80869695  0.72379840     0.12900
H355        H  0.74026709  0.82909990  0.74332918     0.13000
O356        O  0.97988354  0.58462533  0.79464109    -0.72800
O357        O  0.07535278  0.52031375  0.79580254    -0.73800
O358        O  0.07614998  0.57610609  0.79600576    -0.62000
O359        O  0.97804689  0.52883804  0.79317940    -0.70800
O360        O  0.97934612  0.52721014  0.70746137    -0.70400
O361        O  0.07486819  0.57415419  0.71026920    -0.61600
O362        O  0.07483422  0.51851499  0.71002185    -0.74100
O363        O  0.97897770  0.58258025  0.70887086    -0.72900
Cu364      Cu  0.02734301  0.55248682  0.79799947     1.04600
Cu365      Cu  0.02707425  0.55057282  0.70634019     1.04300
C366        C  0.96445923  0.59383370  0.75161171     0.93400
C367        C  0.09005917  0.50917181  0.75305694     0.92500
C368        C  0.09066752  0.58272856  0.75291485     0.84700
C369        C  0.96324675  0.52060871  0.74949959     0.90900
N370        N  0.66387046  0.41628140  0.70837519    -0.03300
C371        C  0.62052095  0.42108214  0.69057914    -0.00700
C372        C  0.61346389  0.44494254  0.66639327    -0.23600
C373        C  0.65359766  0.45507315  0.66930293    -0.23800
C374        C  0.68383266  0.43716392  0.69522217    -0.00900
H375        H  0.58201476  0.45451887  0.65019669     0.12900
H376        H  0.65978275  0.47377892  0.65521512     0.13000
C377        C  0.98322650  0.25723219  0.77090432     0.86600
C378        C  0.97919568  0.23768292  0.81326032    -0.53600
C379        C  0.94001813  0.22691221  0.81107627     0.09500
C380        C  0.90797570  0.23647792  0.76616684     0.20500
C381        C  0.97591152  0.24185298  0.71968973    -0.54300
C382        C  0.93706427  0.23074539  0.71750510     0.09600
C383        C  0.94011806  0.27749850  0.77562720    -0.53900
C384        C  0.90083881  0.26677870  0.77312673     0.10200
H385        H  0.00485983  0.23310548  0.84310994     0.14700
H386        H  0.87615384  0.22763284  0.76426252     0.00500
H387        H  0.99980374  0.23943448  0.68818809     0.15000
H388        H  0.93972339  0.29866083  0.77771335     0.14800
C389        C  0.07217894  0.85298085  0.76494299     0.86600
C390        C  0.08530640  0.86872333  0.81369331    -0.53600
C391        C  0.12516890  0.87847186  0.80994342     0.09500
C392        C  0.14925270  0.87132816  0.75808026     0.20500
C393        C  0.07361338  0.87186387  0.72061371    -0.54300
C394        C  0.11363220  0.88147184  0.71683880     0.09600
C395        C  0.11309657  0.83163307  0.75625236    -0.53900
C396        C  0.15338236  0.84094464  0.75251423     0.10200
H397        H  0.06558131  0.87243631  0.84850668     0.14700
H398        H  0.18183849  0.87913365  0.75507325     0.00500
H399        H  0.04547738  0.87692335  0.69395205     0.15000
H400        H  0.11046681  0.81071294  0.75381066     0.14800
N401        N  0.94211708  0.17594030  0.90433189    -0.27200
N402        N  0.92127355  0.19661163  0.93081620    -0.35000
C403        C  0.91320171  0.21712187  0.89955046     0.01200
C404        C  0.92936335  0.20909982  0.85091740     0.07200
C405        C  0.94800082  0.18296211  0.85552954    -0.05900
H406        H  0.90047380  0.23706708  0.91252219     0.07900
H407        H  0.96762369  0.17064338  0.82675998     0.09100
Cu408      Cu  0.91592673  0.19990887  0.51084878     0.44200
Cu409      Cu  0.96750243  0.14033071  0.93805118     0.42000
Cu410      Cu  0.96210822  0.14294355  0.58227933     0.43900
N411        N  0.92069576  0.20022441  0.59109495    -0.34500
N412        N  0.93718303  0.17934419  0.61735242    -0.28800
C413        C  0.94117443  0.18678417  0.66759414    -0.04900
C414        C  0.92642325  0.21354635  0.67326456     0.07300
C415        C  0.91424478  0.22146701  0.62387099     0.01100
H416        H  0.95752776  0.17418603  0.69697394     0.08800
H417        H  0.90495442  0.24151180  0.61201754     0.07800
N418        N  0.99096880  0.10982096  0.53881993    -0.36000
N419        N  0.99615850  0.10952195  0.48809481    -0.28200
C420        C  0.01034888  0.08367464  0.96564565    -0.03400
C421        C  0.02362248  0.06965752  0.51465141     0.05200
C422        C  0.00731873  0.08588510  0.55626606     0.03300
H423        H  0.01698953  0.07795717  0.92549167     0.08400
H424        H  0.00718348  0.08066797  0.59634853     0.07200
N425        N  0.13055416  0.93046296  0.90686364    -0.27200
N426        N  0.14560666  0.90960021  0.93383523    -0.35000
C427        C  0.15160184  0.88815387  0.90159121     0.01200
C428        C  0.14055229  0.89575448  0.85165893     0.07200
C429        C  0.12702728  0.92272307  0.85668206    -0.05900
H430        H  0.15852682  0.86813543  0.91428098     0.07900
H431        H  0.11065668  0.93517286  0.82708000     0.09100
Cu432      Cu  0.14062441  0.90958862  0.51563390     0.44200
Cu433      Cu  0.10532051  0.96710983  0.94123410     0.42000
Cu434      Cu  0.08552143  0.96762810  0.58560549     0.43900
N435        N  0.13024652  0.91110087  0.59499361    -0.34500
N436        N  0.10833266  0.93176443  0.62053941    -0.28800
C437        C  0.10183412  0.92493007  0.66938170    -0.04900
C438        C  0.12147374  0.89899271  0.67500343     0.07300
C439        C  0.13870150  0.89084902  0.62691014     0.01100
H440        H  0.08222260  0.93742512  0.69790982     0.08800
H441        H  0.15316257  0.87104426  0.61489390     0.07800
N442        N  0.06844224  0.00108126  0.54109996    -0.36000
N443        N  0.07473175  0.00113318  0.49057088    -0.28200
C444        C  0.05857585  0.02403129  0.96699148    -0.03400
C445        C  0.04382044  0.04154358  0.51536098     0.05200
C446        C  0.04969520  0.02543977  0.55749277     0.03300
H447        H  0.05602601  0.02870825  0.92654336     0.08400
H448        H  0.04069543  0.03097287  0.59714813     0.07200
C449        C  0.68746055  0.39174933  0.72599884    -0.01200
C450        C  0.70872721  0.39066497  0.77456312    -0.09200
C451        C  0.73825866  0.36834846  0.78830727    -0.18000
C452        C  0.74789675  0.34641003  0.75324300     0.04400
C453        C  0.72355861  0.34692735  0.70538775     0.18600
C454        C  0.69353433  0.36946748  0.69236833    -0.19400
C455        C  0.73090709  0.32544690  0.66988876    -0.20700
C456        C  0.76360539  0.30398785  0.67964847    -0.19200
C457        C  0.79023520  0.30361951  0.72483345     0.20000
C458        C  0.78215924  0.32459772  0.76280936     0.02100
C459        C  0.81064268  0.32359019  0.80720168    -0.14000
C460        C  0.84745785  0.30376166  0.81176259    -0.11700
C461        C  0.85648159  0.28387587  0.77317369     0.01600
C462        C  0.82667624  0.28322656  0.73085022    -0.23900
H463        H  0.70319124  0.40744214  0.80153400     0.09600
H464        H  0.75381681  0.36915073  0.82619628     0.13200
H465        H  0.67674899  0.37033390  0.65479642     0.11900
H466        H  0.71209278  0.32556588  0.63361986     0.13100
H467        H  0.76930955  0.28803499  0.65068075     0.12100
H468        H  0.80675056  0.33853500  0.83797359     0.09200
H469        H  0.87018029  0.30451029  0.84477458     0.12500
H470        H  0.83395083  0.26800008  0.70060958     0.14300
C471        C  0.73037892  0.44177612  0.70853515    -0.01200
C472        C  0.74051798  0.45086083  0.75849290    -0.09200
C473        C  0.78101236  0.46079764  0.76919773    -0.18000
C474        C  0.81229858  0.46250746  0.72957564     0.04400
C475        C  0.80260766  0.45203768  0.67939186     0.18600
C476        C  0.76192059  0.44186259  0.66940238    -0.19400
C477        C  0.83256327  0.45290935  0.63887523    -0.20700
C478        C  0.87094779  0.46507371  0.64635772    -0.19200
C479        C  0.88023132  0.47680096  0.69449140     0.20000
C480        C  0.85167383  0.47524971  0.73718452     0.02100
C481        C  0.86293216  0.48743462  0.78493980    -0.14000
C482        C  0.89982378  0.50144704  0.78938205    -0.11700
C483        C  0.92674551  0.50375221  0.74660003     0.01600
C484        C  0.91721463  0.49082600  0.69959769    -0.23900
H485        H  0.71589790  0.45161796  0.78884236     0.09600
H486        H  0.78602143  0.46789679  0.80837083     0.13200
H487        H  0.75368252  0.43517729  0.63047481     0.11900
H488        H  0.82564468  0.44472460  0.60070729     0.13100
H489        H  0.89287891  0.46595983  0.61382459     0.12100
H490        H  0.84333415  0.48698720  0.81929323     0.09200
H491        H  0.90650430  0.51113647  0.82615952     0.12500
H492        H  0.93808472  0.49217657  0.66629062     0.14300
C493        C  0.81789550  0.79109508  0.75938132    -0.01200
C494        C  0.85059649  0.78050922  0.72354773    -0.09200
C495        C  0.89332048  0.78868347  0.72482019    -0.18000
C496        C  0.90441811  0.80772953  0.76235808     0.04400
C497        C  0.87208572  0.81670539  0.80101278     0.18600
C498        C  0.82915978  0.80867331  0.79868858    -0.19400
C499        C  0.88226387  0.83424993  0.84092240    -0.20700
C500        C  0.92372457  0.84350507  0.84281529    -0.19200
C501        C  0.95539002  0.83621394  0.80381298     0.20000
C502        C  0.94599359  0.81849546  0.76264148     0.02100
C503        C  0.97773593  0.81324825  0.72252008    -0.14000
C504        C  0.01736381  0.82476907  0.72379989    -0.11700
C505        C  0.02769263  0.84144278  0.76549712     0.01600
C506        C  0.99594418  0.84711723  0.80529516    -0.23900
H507        H  0.84230943  0.76692902  0.69282206     0.09600
H508        H  0.91673618  0.78003526  0.69566011     0.13200
H509        H  0.80378972  0.81677143  0.82657819     0.11900
H510        H  0.85792300  0.84093603  0.87079547     0.13100
H511        H  0.93056240  0.85704843  0.87431819     0.12100
H512        H  0.97232663  0.80085976  0.68895894     0.09200
H513        H  0.04047173  0.82048181  0.69183975     0.12500
H514        H  0.00133057  0.86062037  0.83709205     0.14300
C515        C  0.77854327  0.73828925  0.74866862    -0.01200
C516        C  0.77734003  0.72014897  0.70698808    -0.09200
C517        C  0.80514698  0.69579858  0.70662879    -0.18000
C518        C  0.83502062  0.68870652  0.74851058     0.04400
C519        C  0.83433816  0.70673704  0.79191632     0.18600
C520        C  0.80663640  0.73133584  0.79135557    -0.19400
C521        C  0.86179763  0.70026158  0.83528623    -0.20700
C522        C  0.89061249  0.67645438  0.83620065    -0.19200
C523        C  0.89346630  0.65871477  0.79335409     0.20000
C524        C  0.86583198  0.66459119  0.74875923     0.02100
C525        C  0.87122274  0.64638822  0.70593025    -0.14000
C526        C  0.90299588  0.62358425  0.70713225    -0.11700
C527        C  0.92997860  0.61778404  0.75123649     0.01600
C528        C  0.92453329  0.63535454  0.79447746    -0.23900
H529        H  0.75572888  0.72524886  0.67377882     0.09600
H530        H  0.80262988  0.68299839  0.67288652     0.13200
H531        H  0.80712572  0.74529435  0.82393611     0.11900
H532        H  0.86115266  0.71377776  0.86868656     0.13100
H533        H  0.91152609  0.67212168  0.87034801     0.12100
H534        H  0.85202911  0.64948153  0.67043137     0.09200
H535        H  0.90638980  0.61036046  0.67325153     0.12500
H536        H  0.94549939  0.63122691  0.82868864     0.14300
C537        C  0.47259075  0.69566622  0.75273066    -0.01200
C538        C  0.47559629  0.71250598  0.71224742    -0.09200
C539        C  0.51456948  0.72430371  0.70648953    -0.18000
C540        C  0.55180920  0.71951040  0.74133159     0.04400
C541        C  0.54710082  0.70378538  0.78424314     0.18600
C542        C  0.50794794  0.69200997  0.78931964    -0.19400
C543        C  0.58189671  0.69937897  0.82124788    -0.20700
C544        C  0.62151163  0.71030662  0.81665806    -0.19200
C545        C  0.62776476  0.72543528  0.77433322     0.20000
C546        C  0.59334417  0.72983948  0.73550051     0.02100
C547        C  0.60203722  0.74445362  0.69263745    -0.14000
C548        C  0.64146253  0.75598568  0.69062922    -0.11700
C549        C  0.67389112  0.75296324  0.73051581     0.01600
C550        C  0.66765012  0.73691533  0.77142453    -0.23900
H551        H  0.44882859  0.71541446  0.68334652     0.09600
H552        H  0.51481417  0.73675666  0.67400045     0.13200
H553        H  0.50558118  0.67908994  0.82099695     0.11900
H554        H  0.57835057  0.68748068  0.85417853     0.13100
H555        H  0.64750304  0.70684023  0.84637742     0.12100
H556        H  0.57861344  0.74778260  0.66059808     0.09200
H557        H  0.64588588  0.76827511  0.65858489     0.12500
H558        H  0.69247077  0.73476263  0.80266915     0.14300
C559        C  0.36632640  0.71039660  0.73950461    -0.01200
C560        C  0.36840963  0.72971688  0.77895623    -0.09200
C561        C  0.33798813  0.75323003  0.77953379    -0.18000
C562        C  0.30405339  0.75796691  0.74063662     0.04400
C563        C  0.30334962  0.73854937  0.69980800     0.18600
C564        C  0.33476488  0.71541345  0.69919762    -0.19400
C565        C  0.27015595  0.74177524  0.66081866    -0.20700
C566        C  0.23630368  0.76333805  0.66252363    -0.19200
C567        C  0.23522921  0.78251007  0.70274706     0.20000
C568        C  0.26977963  0.78063318  0.74159871     0.02100
C569        C  0.26758966  0.80119188  0.78025511    -0.14000
C570        C  0.23126987  0.82182428  0.78178052    -0.11700
C571        C  0.19604003  0.82249460  0.74523840     0.01600
C572        C  0.19884207  0.80312136  0.70516983    -0.23900
H573        H  0.39244288  0.72608894  0.81060160     0.09600
H574        H  0.34078190  0.76688543  0.81183772     0.13200
H575        H  0.33370215  0.70070313  0.66811500     0.11900
H576        H  0.26954844  0.72707294  0.62955897     0.13100
H577        H  0.21032381  0.76481262  0.63255016     0.12100
H578        H  0.29297413  0.80156996  0.81032468     0.09200
H579        H  0.22956890  0.83658393  0.81314732     0.12500
H580        H  0.17168115  0.80368038  0.67663489     0.14300
C581        C  0.12643341  0.60001135  0.75142052    -0.01200
C582        C  0.14103668  0.60723428  0.70356196    -0.09200
C583        C  0.17726558  0.62141002  0.70048481    -0.18000
C584        C  0.20074058  0.62872975  0.74547857     0.04400
C585        C  0.18411998  0.62288582  0.79422449     0.18600
C586        C  0.14724120  0.60870835  0.79680037    -0.19400
C587        C  0.20545872  0.63038114  0.84002268    -0.20700
C588        C  0.24441223  0.64223580  0.83843100    -0.19200
C589        C  0.26319671  0.64670517  0.79103213     0.20000
C590        C  0.24113703  0.64058221  0.74377571     0.02100
C591        C  0.26204677  0.64508605  0.69692414    -0.14000
C592        C  0.30446104  0.65348721  0.69716528    -0.11700
C593        C  0.32648525  0.65858740  0.74381071     0.01600
C594        C  0.30526028  0.65587006  0.79056516    -0.23900
H595        H  0.12498613  0.60140988  0.66784558     0.09600
H596        H  0.18655350  0.62587944  0.66218106     0.13200
H597        H  0.13577536  0.60369630  0.83412251     0.11900
H598        H  0.19267295  0.62637198  0.87733498     0.13100
H599        H  0.26088234  0.64707325  0.87458313     0.12100
H600        H  0.24764260  0.64106250  0.65944437     0.09200
H601        H  0.32104158  0.65485516  0.66072768     0.12500
H602        H  0.32294243  0.65933122  0.82669107     0.14300
C603        C  0.38593644  0.35451243  0.77433516    -0.01200
C604        C  0.38536481  0.36690766  0.72713236    -0.09200
C605        C  0.42300980  0.37788644  0.71165632    -0.18000
C606        C  0.46254896  0.37667784  0.74316767     0.04400
C607        C  0.46149334  0.36570750  0.79257544     0.18600
C608        C  0.42359840  0.35469921  0.80742635    -0.19400
C609        C  0.49875503  0.36508216  0.82636270    -0.20700
C610        C  0.53737424  0.37502506  0.81208028    -0.19200
C611        C  0.54017896  0.38523282  0.76312590     0.20000
C612        C  0.50307446  0.38584173  0.72760536     0.02100
C613        C  0.50841360  0.39535272  0.67794795    -0.14000
C614        C  0.54779703  0.40521614  0.66528965    -0.11700
C615        C  0.58331988  0.40584327  0.70130920     0.01600
C616        C  0.57964216  0.39527769  0.74984392    -0.23900
H617        H  0.35685308  0.36672823  0.70070322     0.09600
H618        H  0.42048362  0.38673792  0.67446740     0.13200
H619        H  0.42410305  0.34517935  0.84414264     0.11900
H620        H  0.49801232  0.35685083  0.86420273     0.13100
H621        H  0.56545399  0.37446986  0.83935055     0.12100
H622        H  0.48265601  0.39558718  0.64817836     0.09200
H623        H  0.55003505  0.41304468  0.62732282     0.12500
H624        H  0.60653468  0.39602989  0.77832590     0.14300
C625        C  0.24426610  0.31227002  0.77832673    -0.01200
C626        C  0.20737643  0.32937583  0.79822269    -0.09200
C627        C  0.16411577  0.32180450  0.79776637    -0.18000
C628        C  0.15660846  0.29652359  0.77823602     0.04400
C629        C  0.19426583  0.27937085  0.75810363     0.18600
C630        C  0.23705815  0.28746356  0.75773715    -0.19400
C631        C  0.18936720  0.25395748  0.73926092    -0.20700
C632        C  0.14769976  0.24506673  0.74001220    -0.19200
C633        C  0.10972185  0.26147645  0.75896066     0.20000
C634        C  0.11345168  0.28745485  0.77824140     0.02100
C635        C  0.07386233  0.30303618  0.79689304    -0.14000
C636        C  0.03225679  0.29353658  0.79497781    -0.11700
C637        C  0.02830040  0.26815320  0.77421461     0.01600
C638        C  0.06791266  0.25200610  0.75826293    -0.23900
H639        H  0.21206493  0.34829785  0.81589642     0.09600
H640        H  0.13746184  0.33592500  0.81403888     0.13200
H641        H  0.26533807  0.27404276  0.74220134     0.11900
H642        H  0.21808169  0.24076853  0.72414011     0.13100
H643        H  0.14510424  0.22524056  0.72526434     0.12100
H644        H  0.07391620  0.32271467  0.81316930     0.09200
H645        H  0.00360761  0.30622035  0.81108510     0.12500
H646        H  0.06604922  0.23196641  0.74426858     0.14300
C647        C  0.12437241  0.48511389  0.75318242    -0.01200
C648        C  0.12659286  0.46666038  0.71147206    -0.09200
C649        C  0.15764000  0.44349991  0.71162083    -0.18000
C650        C  0.18830101  0.43809130  0.75347525     0.04400
C651        C  0.18693393  0.45727948  0.79500952     0.18600
C652        C  0.15481192  0.48025867  0.79484950    -0.19400
C653        C  0.21749296  0.45335725  0.83662824    -0.20700
C654        C  0.24880283  0.43057483  0.83851979    -0.19200
C655        C  0.24996109  0.41086682  0.79928188     0.20000
C656        C  0.21986348  0.41430048  0.75600213     0.02100
C657        C  0.22196736  0.39343411  0.71802518    -0.14000
C658        C  0.25137048  0.36989119  0.72394178    -0.11700
C659        C  0.28017215  0.36655570  0.76714677     0.01600
C660        C  0.28013233  0.38735655  0.80394277    -0.23900
H661        H  0.10351977  0.46990787  0.67881033     0.09600
H662        H  0.15685857  0.43022580  0.67830437     0.13200
H663        H  0.15378795  0.49454300  0.82707106     0.11900
H664        H  0.21701328  0.46797507  0.86817186     0.13100
H665        H  0.27170184  0.42810821  0.87153778     0.12100
H666        H  0.20041775  0.39441086  0.68405214     0.09200
H667        H  0.25113617  0.35396129  0.69518021     0.12500
H668        H  0.30227543  0.38463845  0.83758962     0.14300
loop_ 
_geom_bond_atom_site_label_1 
_geom_bond_atom_site_label_2 
_geom_bond_distance 
_geom_bond_site_symmetry_2 
_ccdc_geom_bond_type 
N1            C5   1.354       .  A
N1            C2   1.359       .  A
N1          C325   1.439       .  S
C2            C3   1.385       .  A
C2          C269   1.479       .  S
C3            C4   1.373       .  A
C3            H6   1.082       .  S
C4            C5   1.379       .  A
C4            H7   1.082       .  S
C5          C291   1.470       .  S
N8           C12   1.361       .  A
N8            C9   1.364       .  A
N8          C225   1.446       .  S
C9           C10   1.387       .  A
C9          C203   1.486       .  S
C10          C11   1.370       .  A
C10          H13   1.082       .  S
C11          C12   1.377       .  A
C11          H14   1.082       .  S
C12         C259   1.475       .  S
N15          C19   1.359       .  A
N15          C16   1.362       .  A
N15         C181   1.445       .  S
C16          C17   1.385       .  A
C16         C215   1.484       .  S
C17          C18   1.371       .  A
C17          H20   1.082       .  S
C18          C19   1.379       .  A
C18          H21   1.082       .  S
C19         C159   1.474       .  S
O22         Cu30   2.021   1_655  S
O22          C32   1.279       .  A
O23         Cu30   2.022       .  S
O23          C33   1.280       .  A
O24         Cu30   2.009       .  S
O24          C34   1.278       .  A
O25         Cu30   2.017   1_655  S
O25          C35   1.279       .  A
O26         Cu31   2.011   1_655  S
O26          C35   1.278       .  A
O27         Cu31   2.017       .  S
O27          C34   1.279       .  A
O28         Cu31   2.020       .  S
O28          C33   1.280       .  A
O29         Cu31   2.023   1_655  S
O29          C32   1.280       .  A
Cu30        Cu31   2.369       .  S
C32         C193   1.487       .  S
C33         C313   1.490       .  S
C34         C247   1.485       .  S
C35         C149   1.485       .  S
N36          C40   1.357       .  A
N36          C37   1.360       .  A
N36         C115   1.442       .  S
C37          C38   1.385       .  A
C37         C281   1.480       .  S
C38          C39   1.371       .  A
C38          H41   1.082       .  S
C39          C40   1.378       .  A
C39          H42   1.082       .  S
C40         C137   1.471       .  S
C43          C44   1.537       .  S
C43          C49   1.533       .  S
C43          C47   1.545       .  S
C43         C303   1.531   1_655  S
C44          H51   1.086   1_655  S
C44          C45   1.365       .  D
C45          C46   1.542       .  S
C45          C70   1.474       .  S
C46          C50   1.544       .  S
C46          C48   1.540       .  S
C46          H52   1.111       .  S
C47          H53   1.082       .  S
C47          C48   1.364       .  D
C48          C80   1.476       .  S
C49          H54   1.087       .  S
C49          C50   1.363       .  D
C50         C127   1.481       .  S
C55          C56   1.543       .  S
C55          C61   1.535       .  S
C55          C59   1.538       .  S
C55         C171   1.532       .  S
C56          H63   1.081       .  S
C56          C57   1.364       .  D
C57          C58   1.540       .  S
C57          C94   1.474       .  S
C58          C62   1.545       .  S
C58          C60   1.541       .  S
C58          H64   1.111       .  S
C59          H65   1.087       .  S
C59          C60   1.365       .  D
C60         C104   1.476       .  S
C61          H66   1.087       .  S
C61          C62   1.367       .  D
C62         C237   1.487       .  S
N67          C71   1.348       .  A
N67          N68   1.323       .  A
N67         Cu75   2.094       .  S
N68          C69   1.346       .  A
N68        Cu408   2.076       .  S
C69          C70   1.382       .  A
C69          H72   1.082       .  S
C70          C71   1.386       .  A
C71          H73   1.082       .  S
Cu74         N77   2.079       .  S
Cu74        N402   2.079   1_554  S
Cu75        N419   2.095       .  S
Cu76         N78   2.092       .  S
Cu76         N84   2.092       .  S
N77          C81   1.347       .  A
N77          N78   1.322       .  A
N78          C79   1.348       .  A
C79          C80   1.387       .  A
C79          H82   1.082       .  S
C80          C81   1.384       .  A
C81          H83   1.082       .  S
N84          C88   1.347   1_655  A
N84          N85   1.324   1_554  A
N85         C420   1.350   1_655  A
N85        Cu409   2.095       .  S
C86         N419   1.349   1_455  A
C86         C421   1.388       .  A
C86          H89   1.082       .  S
C87          C88   1.386       .  A
C87         C420   1.388   1_554  A
C87         C111   1.483       .  S
C88          H90   1.082       .  S
N91          C95   1.347       .  A
N91          N92   1.322       .  A
N91         Cu99   2.085       .  S
N92          C93   1.346       .  A
N92        Cu432   2.079       .  S
C93          C94   1.384       .  A
C93          H96   1.082       .  S
C94          C95   1.385       .  A
C95          H97   1.082       .  S
Cu98        N101   2.079       .  S
Cu98        N426   2.079   1_554  S
Cu99        N443   2.086   1_565  S
Cu100       N102   2.093       .  S
Cu100       N108   2.094   1_565  S
N101        C105   1.346       .  A
N101        N102   1.323       .  A
N102        C103   1.349       .  A
C103        C104   1.386       .  A
C103        H106   1.082       .  S
C104        C105   1.382       .  A
C105        H107   1.082       .  S
N108        C112   1.348       .  A
N108        N109   1.324   1_554  A
N109        C444   1.350       .  A
N109       Cu433   2.093   1_545  S
C110        N443   1.348       .  A
C110        C445   1.385       .  A
C110        H113   1.082       .  S
C111        C112   1.386       .  A
C111        C444   1.387   1_554  A
C112        H114   1.082       .  S
C115        C116   1.398       .  A
C115        C120   1.400       .  A
C116        C117   1.397       .  A
C116        H129   1.082       .  S
C117        C118   1.416       .  A
C117        H130   1.078       .  S
C118        C124   1.433       .  A
C118        C119   1.423       .  A
C119        C121   1.400       .  A
C119        C120   1.409       .  A
C120        H131   1.084       .  S
C121        C122   1.392       .  A
C121        H132   1.084       .  S
C122        C123   1.400       .  A
C122        H133   1.084       .  S
C123        C124   1.425       .  A
C123        C128   1.410       .  A
C124        C125   1.415       .  A
C125        C126   1.397       .  A
C125        H134   1.078       .  S
C126        C127   1.399       .  A
C126        H135   1.084       .  S
C127        C128   1.399       .  A
C128        H136   1.085       .  S
C137        C138   1.397       .  A
C137        C142   1.396       .  A
C138        C139   1.398       .  A
C138        H151   1.083       .  S
C139        C140   1.417       .  A
C139        H152   1.077       .  S
C140        C146   1.431       .  A
C140        C141   1.424       .  A
C141        C143   1.399       .  A
C141        C142   1.404       .  A
C142        H153   1.085       .  S
C143        C144   1.389       .  A
C143        H154   1.084       .  S
C144        C145   1.400       .  A
C144        H155   1.084       .  S
C145        C146   1.422       .  A
C145        C150   1.406       .  A
C146        C147   1.415       .  A
C147        C148   1.398       .  A
C147        H156   1.077       .  S
C148        C149   1.402       .  A
C148        H157   1.083       .  S
C149        C150   1.403       .  A
C150        H158   1.084       .  S
C159        C160   1.397       .  A
C159        C164   1.397       .  A
C160        C161   1.399       .  A
C160        H173   1.083       .  S
C161        C162   1.418       .  A
C161        H174   1.077       .  S
C162        C168   1.431       .  A
C162        C163   1.422       .  A
C163        C165   1.398       .  A
C163        C164   1.402       .  A
C164        H175   1.085       .  S
C165        C166   1.389       .  A
C165        H176   1.084       .  S
C166        C167   1.400       .  A
C166        H177   1.084       .  S
C167        C168   1.421       .  A
C167        C172   1.406       .  A
C168        C169   1.412       .  A
C169        C170   1.397   1_655  A
C169        H178   1.078       .  S
C170        C171   1.405       .  A
C170        H179   1.083       .  S
C171        C172   1.407   1_455  A
C172        H180   1.077       .  S
C181        C182   1.399       .  A
C181        C186   1.402       .  A
C182        C183   1.400       .  A
C182        H195   1.083       .  S
C183        C184   1.417       .  A
C183        H196   1.078       .  S
C184        C190   1.435       .  A
C184        C185   1.423       .  A
C185        C187   1.400       .  A
C185        C186   1.407       .  A
C186        H197   1.084       .  S
C187        C188   1.391       .  A
C187        H198   1.084       .  S
C188        C189   1.400       .  A
C188        H199   1.084       .  S
C189        C190   1.423       .  A
C189        C194   1.408       .  A
C190        C191   1.416       .  A
C191        C192   1.401       .  A
C191        H200   1.078       .  S
C192        C193   1.401       .  A
C192        H201   1.083       .  S
C193        C194   1.403       .  A
C194        H202   1.085       .  S
C203        C204   1.399       .  A
C203        C208   1.405       .  A
C204        C205   1.401       .  A
C204        H217   1.082       .  S
C205        C206   1.419       .  A
C205        H218   1.077       .  S
C206        C212   1.432       .  A
C206        C207   1.419       .  A
C207        C209   1.401       .  A
C207        C208   1.403       .  A
C208        H219   1.085       .  S
C209        C210   1.390       .  A
C209        H220   1.084       .  S
C210        C211   1.399       .  A
C210        H221   1.084       .  S
C211        C212   1.425       .  A
C211        C216   1.409       .  A
C212        C213   1.412       .  A
C213        C214   1.395       .  A
C213        H222   1.077       .  S
C214        C215   1.402       .  A
C214        H223   1.084       .  S
C215        C216   1.400       .  A
C216        H224   1.084       .  S
C225        C226   1.401       .  A
C225        C230   1.398       .  A
C226        C227   1.405       .  A
C226        H239   1.082       .  S
C227        C228   1.418       .  A
C227        H240   1.079       .  S
C228        C234   1.436       .  A
C228        C229   1.423       .  A
C229        C231   1.398       .  A
C229        C230   1.402       .  A
C230        H241   1.081       .  S
C231        C232   1.387       .  A
C231        H242   1.084       .  S
C232        C233   1.398       .  A
C232        H243   1.084       .  S
C233        C234   1.423       .  A
C233        C238   1.403       .  A
C234        C235   1.418       .  A
C235        C236   1.405       .  A
C235        H244   1.079       .  S
C236        C237   1.400       .  A
C236        H245   1.083       .  S
C237        C238   1.401       .  A
C238        H246   1.085       .  S
C247        C248   1.401       .  A
C247        C252   1.404       .  A
C248        C249   1.398       .  A
C248        H261   1.083       .  S
C249        C250   1.415       .  A
C249        H262   1.077       .  S
C250        C256   1.431       .  A
C250        C251   1.422       .  A
C251        C253   1.400       .  A
C251        C252   1.406       .  A
C252        H263   1.084       .  S
C253        C254   1.390       .  A
C253        H264   1.084       .  S
C254        C255   1.399       .  A
C254        H265   1.084       .  S
C255        C256   1.424       .  A
C255        C260   1.406       .  A
C256        C257   1.415       .  A
C257        C258   1.396       .  A
C257        H266   1.077       .  S
C258        C259   1.397       .  A
C258        H267   1.083       .  S
C259        C260   1.398       .  A
C260        H268   1.085       .  S
C269        C270   1.398       .  A
C269        C274   1.402       .  A
C270        C271   1.399       .  A
C270        H283   1.083       .  S
C271        C272   1.417       .  A
C271        H284   1.077       .  S
C272        C278   1.430       .  A
C272        C273   1.420       .  A
C273        C275   1.400       .  A
C273        C274   1.403       .  A
C274        H285   1.085       .  S
C275        C276   1.391       .  A
C275        H286   1.084       .  S
C276        C277   1.399       .  A
C276        H287   1.084       .  S
C277        C278   1.424       .  A
C277        C282   1.408       .  A
C278        C279   1.412       .  A
C279        C280   1.395       .  A
C279        H288   1.077       .  S
C280        C281   1.401       .  A
C280        H289   1.084       .  S
C281        C282   1.400       .  A
C282        H290   1.084       .  S
C291        C292   1.396       .  A
C291        C296   1.396       .  A
C292        C293   1.399       .  A
C292        H305   1.083       .  S
C293        C294   1.417       .  A
C293        H306   1.078       .  S
C294        C300   1.430       .  A
C294        C295   1.423       .  A
C295        C297   1.398       .  A
C295        C296   1.402       .  A
C296        H307   1.085       .  S
C297        C298   1.388       .  A
C297        H308   1.084       .  S
C298        C299   1.400       .  A
C298        H309   1.084       .  S
C299        C300   1.421       .  A
C299        C304   1.404       .  A
C300        C301   1.413       .  A
C301        C302   1.397       .  A
C301        H310   1.078       .  S
C302        C303   1.406       .  A
C302        H311   1.084       .  S
C303        C304   1.406       .  A
C304        H312   1.077       .  S
C313        C314   1.402       .  A
C313        C318   1.405       .  A
C314        C315   1.399       .  A
C314        H327   1.083       .  S
C315        C316   1.415       .  A
C315        H328   1.078       .  S
C316        C322   1.434       .  A
C316        C317   1.422       .  A
C317        C319   1.401       .  A
C317        C318   1.409       .  A
C318        H329   1.084       .  S
C319        C320   1.392       .  A
C319        H330   1.084       .  S
C320        C321   1.400       .  A
C320        H331   1.084       .  S
C321        C322   1.424       .  A
C321        C326   1.409       .  A
C322        C323   1.416       .  A
C323        C324   1.398       .  A
C323        H332   1.078       .  S
C324        C325   1.397       .  A
C324        H333   1.083       .  S
C325        C326   1.399       .  A
C326        H334   1.084       .  S
N335        C339   1.364       .  A
N335        C336   1.361       .  A
N335        C659   1.442       .  S
C336        C337   1.382       .  A
C336        C603   1.482       .  S
C337        C338   1.369       .  A
C337        H340   1.082       .  S
C338        C339   1.384       .  A
C338        H341   1.082       .  S
C339        C625   1.489       .  S
N342        C346   1.359       .  A
N342        C343   1.361       .  A
N342        C559   1.444       .  S
C343        C344   1.385       .  A
C343        C537   1.481       .  S
C344        C345   1.371       .  A
C344        H347   1.083       .  S
C345        C346   1.379       .  A
C345        H348   1.082       .  S
C346        C593   1.474       .  S
N349        C353   1.359       .  A
N349        C350   1.360       .  A
N349        C515   1.442       .  S
C350        C351   1.383       .  A
C350        C549   1.479       .  S
C351        C352   1.372       .  A
C351        H354   1.082       .  S
C352        C353   1.381       .  A
C352        H355   1.082       .  S
C353        C493   1.477       .  S
O356       Cu364   2.020   1_655  S
O356        C366   1.279       .  A
O357       Cu364   2.027       .  S
O357        C367   1.280       .  A
O358       Cu364   2.029       .  S
O358        C368   1.280       .  A
O359       Cu364   2.038   1_655  S
O359        C369   1.282       .  A
O360       Cu365   1.992   1_655  S
O360        C369   1.276       .  A
O361       Cu365   1.999       .  S
O361        C368   1.277       .  A
O362       Cu365   2.023       .  S
O362        C367   1.280       .  A
O363       Cu365   2.023   1_655  S
O363        C366   1.280       .  A
Cu364      Cu365   2.369       .  S
C366        C527   1.488       .  S
C367        C647   1.489       .  S
C368        C581   1.486       .  S
C369        C483   1.486       .  S
N370        C374   1.357       .  A
N370        C371   1.360       .  A
N370        C449   1.440       .  S
C371        C372   1.386       .  A
C371        C615   1.485       .  S
C372        C373   1.374       .  A
C372        H375   1.082       .  S
C373        C374   1.379       .  A
C373        H376   1.082       .  S
C374        C471   1.477       .  S
C377        C378   1.534       .  S
C377        C383   1.540       .  S
C377        C381   1.541       .  S
C377        C637   1.532   1_655  S
C378        H385   1.086   1_655  S
C378        C379   1.364       .  D
C379        C380   1.542       .  S
C379        C404   1.475       .  S
C380        C384   1.543       .  S
C380        C382   1.539       .  S
C380        H386   1.111       .  S
C381        H387   1.086       .  S
C381        C382   1.365       .  D
C382        C414   1.473       .  S
C383        H388   1.084       .  S
C383        C384   1.366       .  D
C384        C461   1.483       .  S
C389        C390   1.543       .  S
C389        C395   1.535       .  S
C389        C393   1.537       .  S
C389        C505   1.532       .  S
C390        H397   1.082       .  S
C390        C391   1.364       .  D
C391        C392   1.541       .  S
C391        C428   1.476       .  S
C392        C396   1.547       .  S
C392        C394   1.545       .  S
C392        H398   1.111       .  S
C393        H399   1.087       .  S
C393        C394   1.365       .  D
C394        C438   1.479       .  S
C395        H400   1.087       .  S
C395        C396   1.365       .  D
C396        C571   1.487       .  S
N401        C405   1.349       .  A
N401        N402   1.323       .  A
N401       Cu409   2.095       .  S
N402        C403   1.346       .  A
C403        C404   1.382       .  A
C403        H406   1.082       .  S
C404        C405   1.386       .  A
C405        H407   1.082       .  S
Cu408       N411   2.077       .  S
Cu410       N412   2.087       .  S
Cu410       N418   2.088       .  S
N411        C415   1.347       .  A
N411        N412   1.323       .  A
N412        C413   1.347       .  A
C413        C414   1.384       .  A
C413        H416   1.082       .  S
C414        C415   1.383       .  A
C415        H417   1.082       .  S
N418        C422   1.348   1_655  A
N418        N419   1.323       .  A
C420        H423   1.082       .  S
C421        C422   1.386       .  A
C421        C445   1.483       .  S
C422        H424   1.082       .  S
N425        C429   1.348       .  A
N425        N426   1.322       .  A
N425       Cu433   2.093       .  S
N426        C427   1.346       .  A
C427        C428   1.385       .  A
C427        H430   1.082       .  S
C428        C429   1.387       .  A
C429        H431   1.082       .  S
Cu432       N435   2.079       .  S
Cu434       N436   2.104       .  S
Cu434       N442   2.104   1_565  S
N435        C439   1.347       .  A
N435        N436   1.323       .  A
N436        C437   1.350       .  A
C437        C438   1.388       .  A
C437        H440   1.082       .  S
C438        C439   1.381       .  A
C439        H441   1.082       .  S
N442        C446   1.350       .  A
N442        N443   1.324       .  A
C444        H447   1.082       .  S
C445        C446   1.388       .  A
C446        H448   1.082       .  S
C449        C450   1.396       .  A
C449        C454   1.400       .  A
C450        C451   1.397       .  A
C450        H463   1.081       .  S
C451        C452   1.416       .  A
C451        H464   1.078       .  S
C452        C458   1.432       .  A
C452        C453   1.423       .  A
C453        C455   1.400       .  A
C453        C454   1.408       .  A
C454        H465   1.084       .  S
C455        C456   1.393       .  A
C455        H466   1.084       .  S
C456        C457   1.400       .  A
C456        H467   1.084       .  S
C457        C458   1.424       .  A
C457        C462   1.410       .  A
C458        C459   1.414       .  A
C459        C460   1.395       .  A
C459        H468   1.078       .  S
C460        C461   1.399       .  A
C460        H469   1.083       .  S
C461        C462   1.400       .  A
C462        H470   1.085       .  S
C471        C472   1.398       .  A
C471        C476   1.398       .  A
C472        C473   1.398       .  A
C472        H485   1.083       .  S
C473        C474   1.415       .  A
C473        H486   1.077       .  S
C474        C480   1.433       .  A
C474        C475   1.424       .  A
C475        C477   1.399       .  A
C475        C476   1.406       .  A
C476        H487   1.085       .  S
C477        C478   1.390       .  A
C477        H488   1.084       .  S
C478        C479   1.400       .  A
C478        H489   1.084       .  S
C479        C480   1.421       .  A
C479        C484   1.405       .  A
C480        C481   1.417       .  A
C481        C482   1.401       .  A
C481        H490   1.077       .  S
C482        C483   1.400       .  A
C482        H491   1.083       .  S
C483        C484   1.404       .  A
C484        H492   1.084       .  S
C493        C494   1.398       .  A
C493        C498   1.399       .  A
C494        C495   1.400       .  A
C494        H507   1.083       .  S
C495        C496   1.417       .  A
C495        H508   1.078       .  S
C496        C502   1.431       .  A
C496        C497   1.421       .  A
C497        C499   1.399       .  A
C497        C498   1.403       .  A
C498        H509   1.084       .  S
C499        C500   1.389       .  A
C499        H510   1.084       .  S
C500        C501   1.400       .  A
C500        H511   1.084       .  S
C501        C502   1.421       .  A
C501        C506   1.406       .  A
C502        C503   1.412       .  A
C503        C504   1.397   1_655  A
C503        H512   1.078       .  S
C504        C505   1.406       .  A
C504        H513   1.084       .  S
C505        C506   1.408   1_455  A
C506        H514   1.078   1_655  S
C515        C516   1.398       .  A
C515        C520   1.401       .  A
C516        C517   1.399       .  A
C516        H529   1.083       .  S
C517        C518   1.416       .  A
C517        H530   1.078       .  S
C518        C524   1.434       .  A
C518        C519   1.423       .  A
C519        C521   1.400       .  A
C519        C520   1.408       .  A
C520        H531   1.084       .  S
C521        C522   1.392       .  A
C521        H532   1.084       .  S
C522        C523   1.401       .  A
C522        H533   1.084       .  S
C523        C524   1.423       .  A
C523        C528   1.409       .  A
C524        C525   1.415       .  A
C525        C526   1.399       .  A
C525        H534   1.078       .  S
C526        C527   1.401       .  A
C526        H535   1.083       .  S
C527        C528   1.404       .  A
C528        H536   1.085       .  S
C537        C538   1.398       .  A
C537        C542   1.403       .  A
C538        C539   1.401       .  A
C538        H551   1.083       .  S
C539        C540   1.419       .  A
C539        H552   1.078       .  S
C540        C546   1.432       .  A
C540        C541   1.420       .  A
C541        C543   1.400       .  A
C541        C542   1.403       .  A
C542        H553   1.085       .  S
C543        C544   1.391       .  A
C543        H554   1.084       .  S
C544        C545   1.399       .  A
C544        H555   1.084       .  S
C545        C546   1.425       .  A
C545        C550   1.409       .  A
C546        C547   1.413       .  A
C547        C548   1.396       .  A
C547        H556   1.078       .  S
C548        C549   1.400       .  A
C548        H557   1.084       .  S
C549        C550   1.399       .  A
C550        H558   1.085       .  S
C559        C560   1.400       .  A
C559        C564   1.399       .  A
C560        C561   1.404       .  A
C560        H573   1.083       .  S
C561        C562   1.418       .  A
C561        H574   1.078       .  S
C562        C568   1.436       .  A
C562        C563   1.423       .  A
C563        C565   1.399       .  A
C563        C564   1.405       .  A
C564        H575   1.083       .  S
C565        C566   1.389       .  A
C565        H576   1.084       .  S
C566        C567   1.399       .  A
C566        H577   1.084       .  S
C567        C568   1.423       .  A
C567        C572   1.406       .  A
C568        C569   1.418       .  A
C569        C570   1.405       .  A
C569        H578   1.077       .  S
C570        C571   1.399       .  A
C570        H579   1.083       .  S
C571        C572   1.401       .  A
C572        H580   1.085       .  S
C581        C582   1.402       .  A
C581        C586   1.404       .  A
C582        C583   1.394       .  A
C582        H595   1.083       .  S
C583        C584   1.412       .  A
C583        H596   1.077       .  S
C584        C590   1.430       .  A
C584        C585   1.423       .  A
C585        C587   1.400       .  A
C585        C586   1.410       .  A
C586        H597   1.084       .  S
C587        C588   1.391       .  A
C587        H598   1.083       .  S
C588        C589   1.400       .  A
C588        H599   1.084       .  S
C589        C590   1.422       .  A
C589        C594   1.405       .  A
C590        C591   1.417       .  A
C591        C592   1.397       .  A
C591        H600   1.077       .  S
C592        C593   1.396       .  A
C592        H601   1.083       .  S
C593        C594   1.398       .  A
C594        H602   1.085       .  S
C603        C604   1.399       .  A
C603        C608   1.402       .  A
C604        C605   1.401       .  A
C604        H617   1.083       .  S
C605        C606   1.418       .  A
C605        H618   1.078       .  S
C606        C612   1.432       .  A
C606        C607   1.421       .  A
C607        C609   1.400       .  A
C607        C608   1.404       .  A
C608        H619   1.085       .  S
C609        C610   1.390       .  A
C609        H620   1.084       .  S
C610        C611   1.399       .  A
C610        H621   1.084       .  S
C611        C612   1.424       .  A
C611        C616   1.408       .  A
C612        C613   1.413       .  A
C613        C614   1.397       .  A
C613        H622   1.077       .  S
C614        C615   1.402       .  A
C614        H623   1.083       .  S
C615        C616   1.401       .  A
C616        H624   1.083       .  S
C625        C626   1.401       .  A
C625        C630   1.403       .  A
C626        C627   1.403       .  A
C626        H639   1.082       .  S
C627        C628   1.419       .  A
C627        H640   1.078       .  S
C628        C634   1.433       .  A
C628        C629   1.420       .  A
C629        C631   1.399       .  A
C629        C630   1.401       .  A
C630        H641   1.084       .  S
C631        C632   1.388       .  A
C631        H642   1.084       .  S
C632        C633   1.398       .  A
C632        H643   1.084       .  S
C633        C634   1.422       .  A
C633        C638   1.404       .  A
C634        C635   1.412       .  A
C635        C636   1.399       .  A
C635        H644   1.078       .  S
C636        C637   1.408       .  A
C636        H645   1.079       .  S
C637        C638   1.404       .  A
C638        H646   1.085       .  S
C647        C648   1.402       .  A
C647        C652   1.404       .  A
C648        C649   1.400       .  A
C648        H661   1.083       .  S
C649        C650   1.415       .  A
C649        H662   1.078       .  S
C650        C656   1.436       .  A
C650        C651   1.424       .  A
C651        C653   1.400       .  A
C651        C652   1.411       .  A
C652        H663   1.085       .  S
C653        C654   1.392       .  A
C653        H664   1.084       .  S
C654        C655   1.400       .  A
C654        H665   1.084       .  S
C655        C656   1.423       .  A
C655        C660   1.408       .  A
C656        C657   1.418       .  A
C657        C658   1.401       .  A
C657        H666   1.078       .  S
C658        C659   1.398       .  A
C658        H667   1.083       .  S
C659        C660   1.400       .  A
C660        H668   1.084       .  S
