geometry optimzed in LAMMPS
_audit_creation_date              2020-11-30 
_audit_creation_method            'lammps2cif' 
_symmetry_space_group_name_H-M    'P1' 
_symmetry_Int_Tables_number       1 
_symmetry_cell_setting            triclinic 
loop_ 
_symmetry_equiv_pos_as_xyz 
  x,y,z 
_cell_length_a                    31.502826679148114 
_cell_length_b                    31.555426698904654 
_cell_length_c                    31.49875540004636 
_cell_angle_alpha                 89.76707980717863 
_cell_angle_beta                  89.85663874485527 
_cell_angle_gamma                 89.86425182472325 
loop_ 
_atom_site_label 
_atom_site_type_symbol 
_atom_site_fract_x 
_atom_site_fract_y 
_atom_site_fract_z 
_atom_site_charge 
C1          C  0.49925786  0.73573588  0.00207653     0.03050
C2          C  0.46049943  0.71354175  0.00214889    -0.13100
C3          C  0.46030388  0.66917869  0.00295826     0.00550
C4          C  0.49888016  0.64721707  0.00387018    -0.11620
C5          C  0.53770064  0.66867653  0.00307443     0.03050
C6          C  0.53787741  0.71307608  0.00325284    -0.11040
H7          H  0.43076282  0.73073467  0.00008458     0.08640
H8          H  0.49866447  0.61283142  0.00389765     0.06170
H9          H  0.56780799  0.72992015  0.00274883     0.06020
C10         C  0.73200060  0.50217554  0.00633345     0.03050
C11         C  0.70913917  0.54051983  0.00446957    -0.13100
C12         C  0.66467916  0.54003420  0.00372487     0.00550
C13         C  0.64334701  0.50124587  0.00642950    -0.11620
C14         C  0.66562196  0.46288987  0.00717598     0.03050
C15         C  0.71006921  0.46335235  0.00669478    -0.11040
H16         H  0.72588281  0.57043507  0.00259414     0.08640
H17         H  0.60891250  0.50079905  0.00639941     0.06170
H18         H  0.72743871  0.43369471  0.00566314     0.06020
C19         C  0.49938377  0.26911183  0.00416281     0.03050
C20         C  0.53764994  0.29217614  0.00600066    -0.13100
C21         C  0.53714006  0.33649359  0.00344017     0.00550
C22         C  0.49828589  0.35789816  0.00129955    -0.11620
C23         C  0.46001312  0.33563195  0.99981016     0.03050
C24         C  0.46066306  0.29125992  0.00007786    -0.11040
H25         H  0.56779707  0.27577121  0.00847614     0.08640
H26         H  0.49787668  0.39226210  0.00010477     0.06170
H27         H  0.43107772  0.27420602  0.99667495     0.06020
C28         C  0.26633365  0.50279452  0.00154193     0.03050
C29         C  0.28968943  0.54090392  0.00371356    -0.13100
C30         C  0.33409196  0.54025594  0.00060834     0.00550
C31         C  0.35528379  0.50134560  0.99851609    -0.11620
C32         C  0.33286406  0.46327737  0.99703950     0.03050
C33         C  0.28846528  0.46394867  0.99852353    -0.11040
H34         H  0.27352620  0.57105560  0.00675898     0.08640
H35         H  0.38969842  0.50070450  0.99724874     0.06170
H36         H  0.27130737  0.43434799  0.99610711     0.06020
C37         C  0.99723144  0.50172423  0.73280852     0.03050
C38         C  0.99771496  0.46299677  0.71077879    -0.13100
C39         C  0.00080693  0.46262111  0.66643620     0.00550
C40         C  0.00391583  0.50086753  0.64411581    -0.11620
C41         C  0.00422105  0.53961412  0.66558347     0.03050
C42         C  0.00045170  0.54005504  0.70995525    -0.11040
H43         H  0.99701466  0.43324772  0.72803878     0.08640
H44         H  0.00649939  0.50044795  0.60977142     0.06170
H45         H  0.00073991  0.57000195  0.72667475     0.06020
C46         C  0.99993756  0.73509804  0.49951962     0.03050
C47         C  0.99493600  0.71287911  0.46106948    -0.13100
C48         C  0.99531056  0.66849356  0.46070302     0.00550
C49         C  0.99853131  0.64608489  0.49889987    -0.11620
C50         C  0.00207278  0.66749273  0.53750444     0.03050
C51         C  0.00346701  0.71190875  0.53775892    -0.11040
H52         H  0.99096088  0.72984851  0.43139405     0.08640
H53         H  0.99847104  0.61171051  0.49855771     0.06170
H54         H  0.00758094  0.72820368  0.56766955     0.06020
C55         C  0.99789785  0.50323016  0.26642166     0.03050
C56         C  0.99499752  0.54196467  0.28819386    -0.13100
C57         C  0.99430816  0.54241002  0.33262635     0.00550
C58         C  0.99709830  0.50427296  0.35516580    -0.11620
C59         C  0.00029084  0.46548502  0.33391390     0.03050
C60         C  0.00007862  0.46494442  0.28938439    -0.11040
H61         H  0.99296928  0.57151517  0.27065692     0.08640
H62         H  0.99698587  0.50482933  0.38960081     0.06170
H63         H  0.00262753  0.43507639  0.27269914     0.06020
C64         C  0.99951892  0.26975589  0.49933846     0.03050
C65         C  0.00128735  0.29314974  0.46115370    -0.13100
C66         C  0.00276860  0.33757289  0.46211202     0.00550
C67         C  0.00086055  0.35845602  0.50120492    -0.11620
C68         C  0.99860670  0.33570774  0.53924888     0.03050
C69         C  0.99793480  0.29135499  0.53839028    -0.11040
H70         H  0.00300014  0.27685648  0.43097798     0.08640
H71         H  0.00164800  0.39281120  0.50209314     0.06170
H72         H  0.99634399  0.27377567  0.56797176     0.06020
C73         C  0.49939745  0.99857609  0.73268535     0.03050
C74         C  0.46059276  0.99822051  0.71024144    -0.13100
C75         C  0.46036494  0.00056702  0.66577987     0.00550
C76         C  0.49896318  0.00138565  0.64382313    -0.11620
C77         C  0.53761590  0.00314191  0.66536683     0.03050
C78         C  0.53784431  0.00172422  0.70977818    -0.11040
H79         H  0.43068509  0.99709680  0.72723684     0.08640
H80         H  0.49886343  0.00219812  0.60938573     0.06170
H81         H  0.56777912  0.00464722  0.72632481     0.06020
C82         C  0.73414127  0.00437155  0.50055092     0.03050
C83         C  0.71146203  0.00357011  0.53912375    -0.13100
C84         C  0.66701860  0.00530548  0.53886485     0.00550
C85         C  0.64568829  0.00690389  0.49999075    -0.11620
C86         C  0.66779979  0.00933724  0.46151281     0.03050
C87         C  0.71222925  0.00701800  0.46173037    -0.11040
H88         H  0.72838674  0.00292724  0.56902683     0.08640
H89         H  0.61125588  0.00765381  0.49974941     0.06170
H90         H  0.72971184  0.00881303  0.43210701     0.06020
C91         C  0.50227028  0.00066559  0.26788284     0.03050
C92         C  0.54023115  0.00829064  0.29012466    -0.13100
C93         C  0.54058232  0.00805998  0.33455037     0.00550
C94         C  0.50275611  0.00090525  0.35680924    -0.11620
C95         C  0.46466452  0.99356770  0.33532614     0.03050
C96         C  0.46439697  0.99377968  0.29083758    -0.11040
H97         H  0.56937209  0.01487906  0.27303282     0.08640
H98         H  0.50299849  0.00089259  0.39124471     0.06170
H99         H  0.43496205  0.98776086  0.27421603     0.06020
C100        C  0.26715958  0.99456504  0.49916760     0.03050
C101        C  0.28937280  0.99984479  0.53750592    -0.13100
C102        C  0.33379135  0.00106112  0.53752770     0.00550
C103        C  0.35590209  0.99632737  0.49924527    -0.11620
C104        C  0.33441551  0.99093830  0.46078597     0.03050
C105        C  0.28987964  0.99038038  0.46078607    -0.11040
H106        H  0.27214488  0.00334018  0.56711479     0.08640
H107        H  0.39033261  0.99687541  0.49940870     0.06170
H108        H  0.27286760  0.98604804  0.43130069     0.06020
O109        O  0.00058190  0.93971628  0.53621842    -0.73020
O110        O  0.00060569  0.06699456  0.53367885    -0.74000
O111        O  0.93711311  0.00367294  0.53580523    -0.62620
O112        O  0.06447645  0.00365273  0.53414022    -0.71030
O113        O  0.06386732  0.00208745  0.46361514    -0.70580
O114        O  0.93656481  0.00104609  0.46529716    -0.61840
O115        O  0.99917565  0.06572992  0.46321761    -0.74340
O116        O  0.00106061  0.93850601  0.46579262    -0.73120
Cu117      Cu  0.00077564  0.00354968  0.53743281     1.04560
Cu118      Cu  0.00017483  0.00189315  0.46201451     1.04330
C119        C  0.00067976  0.91899969  0.50140999     0.93180
C120        C  0.99914063  0.08640274  0.49804932     0.92320
C121        C  0.91689476  0.00199698  0.50078038     0.84460
C122        C  0.08415174  0.00265757  0.49864960     0.90740
O123        O  0.46431074  0.93919278  0.00127709    -0.73020
O124        O  0.46559250  0.06619561  0.00093281    -0.74000
O125        O  0.46463996  0.00307942  0.93711675    -0.62620
O126        O  0.46505705  0.00290131  0.06422668    -0.71030
O127        O  0.53548211  0.00178415  0.06377472    -0.70580
O128        O  0.53506413  0.00100202  0.93633772    -0.61840
O129        O  0.53602675  0.06514803  0.99929649    -0.74340
O130        O  0.53482321  0.93819388  0.00060621    -0.73120
Cu131      Cu  0.46244912  0.00283398  0.00081702     1.04560
Cu132      Cu  0.53782437  0.00152989  0.99996917     1.04330
C133        C  0.49936518  0.91872466  0.00164445     0.93180
C134        C  0.50105416  0.08572536  0.00017207     0.92560
C135        C  0.49968039  0.00210956  0.91662040     0.84460
C136        C  0.50031382  0.00257103  0.08411951     0.90740
O137        O  0.93418235  0.46774923  0.00009209    -0.73020
O138        O  0.06136661  0.46593677  0.00062466    -0.74000
O139        O  0.99689268  0.46671517  0.06373703    -0.62620
O140        O  0.99781669  0.46702095  0.93625956    -0.71030
O141        O  0.99957657  0.53741359  0.93598679    -0.70580
O142        O  0.99874358  0.53710751  0.06343359    -0.61840
O143        O  0.06254925  0.53619514  0.99977083    -0.74340
O144        O  0.93517183  0.53818477  0.99913760    -0.73120
Cu145      Cu  0.99757539  0.46439448  0.00012599     1.04560
Cu146      Cu  0.99900245  0.53969951  0.99959130     1.04330
C147        C  0.91472433  0.50325656  0.99953301     0.93180
C148        C  0.08211109  0.50068541  0.00052980     0.92320
C149        C  0.99754795  0.50190516  0.08357526     0.84460
C150        C  0.99900982  0.50223158  0.91611267     0.90740
C151        C  0.15118431  0.96563553  0.48129357    -0.26390
C152        C  0.13078225  0.00128101  0.49816694    -0.14470
C153        C  0.15493127  0.03433358  0.51559242     0.36160
C154        C  0.19941946  0.03106771  0.51571926    -0.25840
C155        C  0.22011240  0.99519803  0.49917361    -0.15080
C156        C  0.19548667  0.96151658  0.48257642     0.37250
N157        N  0.21387503  0.92235578  0.46802116    -0.89330
H158        H  0.13237814  0.93996440  0.46849459     0.18360
H159        H  0.21815203  0.05684588  0.52837143     0.18350
N160        N  0.13415966  0.07122451  0.53253168    -0.88360
H161        H  0.20087340  0.89788495  0.48634280     0.35730
H162        H  0.24643176  0.92104009  0.47366389     0.40830
H163        H  0.11858046  0.08648343  0.50746817     0.40450
H164        H  0.15649904  0.09267095  0.54417349     0.35340
C165        C  0.39123840  0.95377113  0.42135182    -0.26390
C166        C  0.36004184  0.98561351  0.42159023    -0.14470
C167        C  0.35941506  0.01603148  0.38856695     0.36160
C168        C  0.39224051  0.01598862  0.35807980    -0.25840
C169        C  0.42552998  0.98645394  0.36044226    -0.15080
C170        C  0.42406522  0.95395943  0.39122869     0.37250
N171        N  0.45723085  0.92262041  0.39302677    -0.89330
H172        H  0.39144961  0.93023462  0.44651555     0.18360
H173        H  0.39350536  0.04082431  0.33425174     0.18350
N174        N  0.32768394  0.04882228  0.38810674    -0.88360
H175        H  0.45186896  0.90131496  0.41796840     0.35730
H176        H  0.45590855  0.90509935  0.36496694     0.40830
H177        H  0.29867655  0.03459767  0.38096672     0.40450
H178        H  0.33362222  0.07037429  0.36350865     0.35340
C179        C  0.53232424  0.98021740  0.15257786    -0.26390
C180        C  0.50046496  0.00269664  0.13103529    -0.14470
C181        C  0.46900096  0.02436766  0.15452194     0.36160
C182        C  0.47016432  0.02304471  0.19907810    -0.25840
C183        C  0.50197553  0.00046021  0.22071147    -0.15080
C184        C  0.53303575  0.97822588  0.19712021     0.37250
N185        N  0.56457965  0.95293737  0.21838745    -0.89330
H186        H  0.55612523  0.96314075  0.13452322     0.18360
H187        H  0.44651792  0.04039571  0.21706155     0.18350
N188        N  0.43650077  0.04830965  0.13313378    -0.88360
H189        H  0.58500849  0.93868351  0.19644256     0.35730
H190        H  0.54882431  0.92838884  0.23424068     0.40830
H191        H  0.45130773  0.07333593  0.11709820     0.40450
H192        H  0.41563643  0.06198517  0.15504380     0.35340
C193        C  0.58095085  0.04717524  0.38881325    -0.26390
C194        C  0.58004654  0.01440478  0.35898664    -0.14470
C195        C  0.61346703  0.98452673  0.35784531     0.36160
C196        C  0.64494731  0.98560972  0.38954137    -0.25840
C197        C  0.64304621  0.01579698  0.42208505    -0.15080
C198        C  0.61232928  0.04841399  0.42017039     0.37250
N199        N  0.61183943  0.08128736  0.45167230    -0.89330
H200        H  0.55561975  0.07048483  0.38904966     0.18360
H201        H  0.66890570  0.96094781  0.39080237     0.18350
N202        N  0.61386245  0.95181925  0.32621077    -0.88360
H203        H  0.58684735  0.10246121  0.44619868     0.35730
H204        H  0.63993476  0.09855617  0.44831922     0.40830
H205        H  0.58746701  0.93246459  0.33149880     0.40450
H206        H  0.64067567  0.93254267  0.32971643     0.35340
C207        C  0.80239670  0.96765935  0.48825774    -0.26390
C208        C  0.78094396  0.00450788  0.50087981    -0.14470
C209        C  0.80449350  0.04044184  0.51364382     0.36160
C210        C  0.84889223  0.03814943  0.51412064    -0.25840
C211        C  0.87030475  0.00140597  0.50126970    -0.15080
C212        C  0.84682749  0.96546910  0.48850168     0.37250
N213        N  0.86669649  0.92626101  0.47618352    -0.89330
H214        H  0.78437700  0.94012952  0.47856096     0.18360
H215        H  0.86691682  0.06572103  0.52372446     0.18350
N216        N  0.78474317  0.07979068  0.52568400    -0.88360
H217        H  0.85708488  0.90296804  0.49784890     0.35730
H218        H  0.89969485  0.92772127  0.47830687     0.40830
H219        H  0.75177317  0.07857507  0.52316434     0.40450
H220        H  0.79475404  0.10298036  0.50408952     0.35340
C221        C  0.61198565  0.04228813  0.58038330    -0.26390
C222        C  0.64140994  0.00894186  0.57817547    -0.14470
C223        C  0.64117603  0.97721129  0.60992827     0.36160
C224        C  0.60889402  0.97764254  0.64110242    -0.25840
C225        C  0.57694385  0.00877476  0.64024648    -0.15080
C226        C  0.57971415  0.04227425  0.61075406     0.37250
N227        N  0.54854789  0.07544152  0.61045721    -0.89330
H228        H  0.61250095  0.06725897  0.55663157     0.18360
H229        H  0.60685548  0.95207007  0.66407354     0.18350
N230        N  0.67208467  0.94366101  0.60908181    -0.88360
H231        H  0.56425844  0.10433796  0.61410851     0.35730
H232        H  0.53380619  0.07562821  0.58074416     0.40830
H233        H  0.66697136  0.92597431  0.58157980     0.40450
H234        H  0.66752297  0.92304313  0.63475238     0.35340
C235        C  0.41850082  0.03925951  0.61193735    -0.26390
C236        C  0.42079955  0.00532118  0.64081118    -0.14470
C237        C  0.38889495  0.97400573  0.64051009     0.36160
C238        C  0.35760478  0.97526443  0.60857402    -0.25840
C239        C  0.35839336  0.00682142  0.57700429    -0.15080
C240        C  0.38779980  0.04022367  0.57992119     0.37250
N241        N  0.38770329  0.07374212  0.54884919    -0.89330
H242        H  0.44251322  0.06379594  0.61281990     0.18360
H243        H  0.33467222  0.94983911  0.60632705     0.18350
N244        N  0.38979236  0.93990758  0.67087399    -0.88360
H245        H  0.41187526  0.09549225  0.55503407     0.35730
H246        H  0.35899757  0.09014719  0.55196198     0.40830
H247        H  0.41714937  0.92198553  0.66511896     0.40450
H248        H  0.36397995  0.91967598  0.66632849     0.35340
C249        C  0.47025275  0.02418216  0.80182815    -0.26390
C250        C  0.49957592  0.99856235  0.77999325    -0.14470
C251        C  0.52891117  0.97397775  0.80358151     0.36160
C252        C  0.52897921  0.97656275  0.84811136    -0.25840
C253        C  0.49936612  0.00180768  0.86972610    -0.15080
C254        C  0.46965358  0.02587524  0.84637967     0.37250
N255        N  0.43956622  0.05260626  0.86792615    -0.89330
H256        H  0.44815499  0.04365670  0.78404319     0.18360
H257        H  0.55147029  0.95775375  0.86615732     0.18350
N258        N  0.55785752  0.94575326  0.78240174    -0.88360
H259        H  0.41972999  0.06792988  0.84613665     0.35730
H260        H  0.45664675  0.07631378  0.88341896     0.40830
H261        H  0.53980718  0.92244164  0.76743153     0.40450
H262        H  0.57729106  0.93011680  0.80433226     0.35340
C263        C  0.96975247  0.20123161  0.47415496    -0.26390
C264        C  0.00002438  0.22274665  0.49847971    -0.14470
C265        C  0.02998943  0.19926045  0.52214889     0.36160
C266        C  0.02847326  0.15477977  0.52161864    -0.25840
C267        C  0.99810589  0.13319261  0.49746134    -0.15080
C268        C  0.96780645  0.15680553  0.47385982     0.37250
N269        N  0.93386074  0.13727778  0.45054065    -0.89330
H270        H  0.94644459  0.21918677  0.45626591     0.18360
H271        H  0.05163891  0.13674986  0.53962101     0.18350
N272        N  0.06226757  0.22066968  0.54603916    -0.88360
H273        H  0.90523923  0.14841470  0.46321827     0.35730
H274        H  0.93316556  0.10454132  0.45488054     0.40830
H275        H  0.08158129  0.23693727  0.52443615     0.40450
H276        H  0.08177876  0.19880836  0.56168652     0.35340
C277        C  0.03933495  0.42396276  0.38779090    -0.26390
C278        C  0.00511165  0.42638458  0.35952581    -0.14470
C279        C  0.97340780  0.39487667  0.36065798     0.36160
C280        C  0.97498960  0.36329735  0.39241946    -0.25840
C281        C  0.00732012  0.36336404  0.42301926    -0.15080
C282        C  0.04085322  0.39270405  0.41944034     0.37250
N283        N  0.07528031  0.39173380  0.44933187    -0.89330
H284        H  0.06388931  0.44794382  0.38642809     0.18360
H285        H  0.94942485  0.34053207  0.39518315     0.18350
N286        N  0.93866939  0.39645132  0.33119488    -0.88360
H287        H  0.09708804  0.41580928  0.44269943     0.35730
H288        H  0.09137664  0.36301475  0.44528906     0.40830
H289        H  0.92122494  0.42397668  0.33740793     0.40450
H290        H  0.91812312  0.37095093  0.33629954     0.35340
C291        C  0.96268707  0.48784446  0.19786531    -0.26390
C292        C  0.99841483  0.50279550  0.21957085    -0.14470
C293        C  0.03407492  0.51712129  0.19650784     0.36160
C294        C  0.03300026  0.51673385  0.15190200    -0.25840
C295        C  0.99724690  0.50186471  0.13024111    -0.15080
C296        C  0.96176056  0.48716047  0.15326039     0.37250
N297        N  0.92449364  0.47301721  0.13126191    -0.89330
H298        H  0.93539641  0.47698542  0.21584698     0.18360
H299        H  0.06027552  0.52761825  0.13390458     0.18350
N300        N  0.07160640  0.53069812  0.21843883    -0.88360
H301        H  0.90060598  0.46482157  0.15287033     0.35730
H302        H  0.93243466  0.44528586  0.11501399     0.40830
H303        H  0.06423572  0.55868071  0.23449590     0.40450
H304        H  0.09561461  0.53834566  0.19676289     0.35340
C305        C  0.95531712  0.62523375  0.40948664    -0.26390
C306        C  0.99375557  0.64443510  0.42067295    -0.14470
C307        C  0.03112731  0.63452275  0.39762985     0.36160
C308        C  0.02945821  0.60358461  0.36587033    -0.25840
C309        C  0.99159568  0.58226066  0.35679369    -0.15080
C310        C  0.95372442  0.59423917  0.37782923     0.37250
N311        N  0.91354635  0.57467465  0.36895376    -0.89330
H312        H  0.92668264  0.63277950  0.42708906     0.18360
H313        H  0.05859698  0.59406440  0.35015280     0.18350
N314        N  0.07169167  0.65289687  0.40737129    -0.88360
H315        H  0.90458313  0.55730231  0.39583961     0.35730
H316        H  0.91569445  0.55338892  0.34375677     0.40830
H317        H  0.06953436  0.67506997  0.43175084     0.40450
H318        H  0.08188175  0.66950644  0.38044186     0.35340
C319        C  0.97841861  0.80432014  0.53159297    -0.26390
C320        C  0.00107550  0.78236087  0.50000371    -0.14470
C321        C  0.02446588  0.80581103  0.46955597     0.36160
C322        C  0.02317454  0.85031281  0.47039665    -0.25840
C323        C  0.00056911  0.87209530  0.50195798    -0.15080
C324        C  0.97811546  0.84885735  0.53307214     0.37250
N325        N  0.95434059  0.87047722  0.56547877    -0.89330
H326        H  0.96016191  0.78665938  0.55483641     0.18360
H327        H  0.04087488  0.86817350  0.44685193     0.18350
N328        N  0.05027632  0.78450068  0.43851465    -0.88360
H329        H  0.94004719  0.84874698  0.58614961     0.35730
H330        H  0.92971542  0.88703276  0.55056016     0.40830
H331        H  0.07428121  0.76831783  0.45478208     0.40450
H332        H  0.06530939  0.80634337  0.41850272     0.35340
C333        C  0.04205099  0.61771475  0.58277206    -0.26390
C334        C  0.00536582  0.64228275  0.57700110    -0.14470
C335        C  0.97076030  0.63730753  0.60542239     0.36160
C336        C  0.97285674  0.60585140  0.63698632    -0.25840
C337        C  0.00830560  0.57910056  0.64049546    -0.15080
C338        C  0.04408269  0.58635116  0.61419829     0.37250
N339        N  0.08253228  0.56195098  0.61784010    -0.89330
H340        H  0.06874980  0.62169639  0.56134205     0.18360
H341        H  0.94531326  0.60024388  0.65691300     0.18350
N342        N  0.93198694  0.66114282  0.60146824    -0.88360
H343        H  0.08522527  0.54317974  0.59068577     0.35730
H344        H  0.08186033  0.54162849  0.64406122     0.40830
H345        H  0.93306756  0.68259598  0.57623822     0.40450
H346        H  0.92843373  0.67909091  0.62908145     0.35340
C347        C  0.96360312  0.40300746  0.63216679    -0.26390
C348        C  0.00212649  0.42265404  0.64235434    -0.14470
C349        C  0.04012150  0.40850467  0.62299405     0.36160
C350        C  0.03820003  0.37705427  0.59189491    -0.25840
C351        C  0.99933363  0.35956098  0.57942776    -0.15080
C352        C  0.96163016  0.37164250  0.60078195     0.37250
N353        N  0.92067983  0.35504049  0.58964540    -0.89330
H354        H  0.93441226  0.41412443  0.64668091     0.18360
H355        H  0.06709734  0.36791171  0.57551191     0.18350
N356        N  0.08087307  0.42630524  0.63296563    -0.88360
H357        H  0.90858996  0.33946816  0.61640918     0.35730
H358        H  0.92291899  0.33227587  0.56581593     0.40830
H359        H  0.07898682  0.44797012  0.65785131     0.40450
H360        H  0.09149452  0.44289853  0.60618847     0.35340
C361        C  0.96478866  0.48460516  0.84804667    -0.26390
C362        C  0.99947776  0.50229592  0.86938295    -0.14470
C363        C  0.03311744  0.52047137  0.84566688     0.36160
C364        C  0.03115777  0.52021608  0.80125045    -0.25840
C365        C  0.99672683  0.50208398  0.77983069    -0.15080
C366        C  0.96286389  0.48451354  0.80344121     0.37250
N367        N  0.92587740  0.46848098  0.78224968    -0.89330
H368        H  0.93878818  0.47136690  0.86635770     0.18360
H369        H  0.05727767  0.53357193  0.78319589     0.18350
N370        N  0.07044273  0.53783515  0.86518594    -0.88360
H371        H  0.90252858  0.46010710  0.80437504     0.35730
H372        H  0.93439719  0.44044606  0.76692091     0.40830
H373        H  0.07044407  0.53381116  0.89805924     0.40450
H374        H  0.07061008  0.57043554  0.85913452     0.35340
C375        C  0.19695110  0.47231915  0.02503875    -0.26390
C376        C  0.21897109  0.50311829  0.00133416    -0.14470
C377        C  0.19549259  0.53258453  0.97676070     0.36160
C378        C  0.15091558  0.53140475  0.97772742    -0.25840
C379        C  0.12909559  0.50020816  0.00087281    -0.15080
C380        C  0.15240789  0.46995659  0.02442102     0.37250
N381        N  0.13092993  0.43779315  0.04872009    -0.89330
H382        H  0.21462646  0.44980770  0.04415207     0.18360
H383        H  0.13302623  0.55428760  0.95922932     0.18350
N384        N  0.21680337  0.56282486  0.94995752    -0.88360
H385        H  0.15262366  0.42031458  0.06680926     0.35730
H386        H  0.11778791  0.41638782  0.02723303     0.40830
H387        H  0.23310631  0.54588890  0.92654730     0.40450
H388        H  0.19490335  0.58219309  0.93419339     0.35340
C389        C  0.41546356  0.38569932  0.95964947    -0.26390
C390        C  0.42007555  0.35999620  0.99579917    -0.14470
C391        C  0.39035996  0.36366711  0.02952959     0.36160
C392        C  0.35895160  0.39524051  0.02739317    -0.25840
C393        C  0.35715149  0.42341905  0.99293404    -0.15080
C394        C  0.38439385  0.41748364  0.95793258     0.37250
N395        N  0.38188848  0.44549833  0.92190505    -0.89330
H396        H  0.43801683  0.38266617  0.93377627     0.18360
H397        H  0.33805252  0.39997565  0.05435999     0.18350
N398        N  0.39293476  0.33862608  0.06769256    -0.88360
H399        H  0.40466226  0.43739926  0.89911766     0.35730
H400        H  0.35221718  0.44106759  0.90783658     0.40830
H401        H  0.41846493  0.31759878  0.06716104     0.40450
H402        H  0.36541319  0.32023915  0.06949775     0.35340
C403        C  0.53023055  0.20059645  0.97932835    -0.26390
C404        C  0.50009321  0.22196298  0.00439991    -0.14470
C405        C  0.47081379  0.19808212  0.02872102     0.36160
C406        C  0.47129348  0.15367190  0.02605740    -0.25840
C407        C  0.50139120  0.13249017  0.00098935    -0.15080
C408        C  0.53137145  0.15613816  0.97756110     0.37250
N409        N  0.56222667  0.13501142  0.95135823    -0.89330
H410        H  0.55247561  0.21868230  0.96028899     0.18360
H411        H  0.44873137  0.13538464  0.04455692     0.18350
N412        N  0.44130821  0.21887747  0.05668536    -0.88360
H413        H  0.58216925  0.15701035  0.93650681     0.35730
H414        H  0.54581123  0.11946614  0.92719632     0.40830
H415        H  0.45891971  0.23410927  0.08018692     0.40450
H416        H  0.42202791  0.19674702  0.07220584     0.35340
C417        C  0.60339694  0.36404254  0.03649659    -0.26390
C418        C  0.57668318  0.36148737  0.00104904    -0.14470
C419        C  0.58447344  0.38742772  0.96539297     0.36160
C420        C  0.61668358  0.41784198  0.96716401    -0.25840
C421        C  0.64103769  0.42318613  0.00397222    -0.15080
C422        C  0.63536790  0.39495842  0.03866393     0.37250
N423        N  0.65961669  0.39796992  0.07715089    -0.89330
H424        H  0.59748185  0.34389072  0.06381226     0.18360
H425        H  0.62115871  0.43936337  0.94061084     0.18350
N426        N  0.55810494  0.38410940  0.92835269    -0.88360
H427        H  0.63868053  0.40608882  0.10162487     0.35730
H428        H  0.68220356  0.42200506  0.07549904     0.40830
H429        H  0.56289322  0.35397241  0.91550752     0.40450
H430        H  0.56751130  0.40595260  0.90513951     0.35340
C431        C  0.84762952  0.48694933  0.03606797    -0.26390
C432        C  0.86812106  0.50369494  0.00021307    -0.14470
C433        C  0.84373276  0.52029736  0.96630351     0.36160
C434        C  0.79936622  0.51968254  0.96933060    -0.25840
C435        C  0.77886069  0.50264372  0.00509843    -0.15080
C436        C  0.80316859  0.48645154  0.03904740     0.37250
N437        N  0.78276264  0.47119091  0.07701981    -0.89330
H438        H  0.86649192  0.47456903  0.06204245     0.18360
H439        H  0.78065359  0.53194163  0.94316010     0.18350
N440        N  0.86253491  0.53634833  0.92781611    -0.88360
H441        H  0.80535712  0.46334261  0.10002876     0.35730
H442        H  0.76722170  0.44298942  0.06962870     0.40830
H443        H  0.89547620  0.53319756  0.92768152     0.40450
H444        H  0.85575467  0.56877539  0.92603777     0.35340
C445        C  0.64073941  0.61139621  0.02873833    -0.26390
C446        C  0.63932117  0.57916353  0.99814705    -0.14470
C447        C  0.60925881  0.58160329  0.96524246     0.36160
C448        C  0.57864979  0.61360991  0.96563435    -0.25840
C449        C  0.57700952  0.64324428  0.99865462    -0.15080
C450        C  0.60950452  0.64354169  0.02945526     0.37250
N451        N  0.60938908  0.67488743  0.06241682    -0.89330
H452        H  0.66424919  0.60972380  0.05374012     0.18360
H453        H  0.55437373  0.61381451  0.94128611     0.18350
N454        N  0.60871359  0.55043086  0.93227524    -0.88360
H455        H  0.63556411  0.67070927  0.08235538     0.35730
H456        H  0.58234680  0.66997659  0.08108823     0.40830
H457        H  0.61184233  0.56609997  0.90313026     0.40450
H458        H  0.57911606  0.53549756  0.93281652     0.35340
C459        C  0.35982507  0.60899803  0.03051091    -0.26390
C460        C  0.35942824  0.57958281  0.99716134    -0.14470
C461        C  0.38753952  0.58493099  0.96272290     0.36160
C462        C  0.41778688  0.61715097  0.96369913    -0.25840
C463        C  0.42087602  0.64424241  0.99867539    -0.15080
C464        C  0.39055621  0.64147275  0.03164589     0.37250
N465        N  0.39300197  0.66949424  0.06738997    -0.89330
H466        H  0.33802631  0.60495950  0.05686923     0.18360
H467        H  0.44076525  0.61941468  0.93810311     0.18350
N468        N  0.38652012  0.55644822  0.92741306    -0.88360
H469        H  0.36944654  0.66209033  0.08964059     0.35730
H470        H  0.38622995  0.70008119  0.05647292     0.40830
H471        H  0.38155486  0.57429495  0.89982762     0.40450
H472        H  0.41625150  0.54183656  0.92495799     0.35340
C473        C  0.47609698  0.80451699  0.03183465    -0.26390
C474        C  0.49911405  0.78266357  0.00057256    -0.14470
C475        C  0.52196665  0.80607162  0.96955388     0.36160
C476        C  0.52228040  0.85036180  0.97166538    -0.25840
C477        C  0.49910874  0.87209898  0.00280525    -0.15080
C478        C  0.47583500  0.84883083  0.03350649     0.37250
N479        N  0.45342495  0.86860117  0.06801673    -0.89330
H480        H  0.45890978  0.78687355  0.05594167     0.18360
H481        H  0.53961759  0.86808421  0.94771448     0.18350
N482        N  0.54323389  0.78649577  0.93424900    -0.88360
H483        H  0.42095873  0.86402239  0.06307090     0.35730
H484        H  0.45875636  0.90115457  0.06943669     0.40830
H485        H  0.53591891  0.75441935  0.93152187     0.40450
H486        H  0.57591816  0.78916380  0.93919700     0.35340
loop_ 
_geom_bond_atom_site_label_1 
_geom_bond_atom_site_label_2 
_geom_bond_distance 
_geom_bond_site_symmetry_2 
_ccdc_geom_bond_type 
C1            C2   1.409       .  A
C1            C6   1.410       .  A
C1          C474   1.481       .  S
C2            C3   1.400       .  A
C2            H7   1.083       .  S
C3            C4   1.398       .  A
C3          C463   1.479   1_554  S
C4            C5   1.399       .  A
C4            H8   1.085       .  S
C5            C6   1.401       .  A
C5          C449   1.481   1_554  S
C6            H9   1.084       .  S
C10          C11   1.408       .  A
C10          C15   1.408       .  A
C10         C435   1.477       .  S
C11          C12   1.401       .  A
C11          H16   1.084       .  S
C12          C13   1.400       .  A
C12         C446   1.479   1_554  S
C13          C14   1.398       .  A
C13          H17   1.085       .  S
C14          C15   1.400       .  A
C14         C421   1.478       .  S
C15          H18   1.084       .  S
C19          C20   1.411       .  A
C19          C24   1.410       .  A
C19         C404   1.488       .  S
C20          C21   1.401       .  A
C20          H25   1.083       .  S
C21          C22   1.398       .  A
C21         C418   1.478       .  S
C22          C23   1.398   1_554  A
C22          H26   1.085       .  S
C23          C24   1.400   1_556  A
C23         C390   1.478       .  S
C24          H27   1.083   1_554  S
C28          C29   1.413       .  A
C28          C33   1.412   1_554  A
C28         C376   1.492       .  S
C29          C30   1.402       .  A
C29          H34   1.083       .  S
C30          C31   1.398   1_554  A
C30         C460   1.481   1_554  S
C31          C32   1.396       .  A
C31          H35   1.085       .  S
C32          C33   1.399       .  A
C32         C393   1.477       .  S
C33          H36   1.083       .  S
C37          C38   1.408       .  A
C37          C42   1.409   1_655  A
C37         C365   1.481       .  S
C38          C39   1.400   1_655  A
C38          H43   1.083       .  S
C39          C40   1.398       .  A
C39         C348   1.475       .  S
C40          C41   1.400       .  A
C40          H44   1.085       .  S
C41          C42   1.403       .  A
C41         C337   1.478       .  S
C42          H45   1.084       .  S
C46          C47   1.411       .  A
C46          C51   1.411   1_655  A
C46         C320   1.492   1_655  S
C47          C48   1.401       .  A
C47          H52   1.083       .  S
C48          C49   1.397       .  A
C48         C306   1.475       .  S
C49          C50   1.398   1_655  A
C49          H53   1.085       .  S
C50          C51   1.402       .  A
C50         C334   1.478       .  S
C51          H54   1.083       .  S
C55          C56   1.407       .  A
C55          C60   1.407   1_655  A
C55         C292   1.476       .  S
C56          C57   1.400       .  A
C56          H61   1.084       .  S
C57          C58   1.397       .  A
C57         C309   1.475       .  S
C58          C59   1.401   1_655  A
C58          H62   1.085       .  S
C59          C60   1.403       .  A
C59         C278   1.479       .  S
C60          H63   1.084       .  S
C64          C65   1.410   1_655  A
C64          C69   1.409       .  A
C64         C264   1.484   1_655  S
C65          C66   1.403       .  A
C65          H70   1.084       .  S
C66          C67   1.400       .  A
C66         C281   1.480       .  S
C67          C68   1.396   1_455  A
C67          H71   1.085       .  S
C68          C69   1.400       .  A
C68         C351   1.475       .  S
C69          H72   1.084       .  S
C73          C74   1.414       .  A
C73          C78   1.412   1_565  A
C73         C250   1.490       .  S
C74          C75   1.402   1_565  A
C74          H79   1.083       .  S
C75          C76   1.398       .  A
C75         C236   1.482       .  S
C76          C77   1.397       .  A
C76          H80   1.085       .  S
C77          C78   1.399       .  A
C77         C225   1.479       .  S
C78          H81   1.083       .  S
C82          C83   1.408       .  A
C82          C87   1.408       .  A
C82         C208   1.474       .  S
C83          C84   1.401       .  A
C83          H88   1.084       .  S
C84          C85   1.399       .  A
C84         C222   1.481       .  S
C85          C86   1.398       .  A
C85          H89   1.085       .  S
C86          C87   1.401       .  A
C86         C197   1.481       .  S
C87          H90   1.084       .  S
C91          C92   1.409       .  A
C91          C96   1.410   1_545  A
C91         C183   1.486       .  S
C92          C93   1.399       .  A
C92          H97   1.083       .  S
C93          C94   1.399       .  A
C93         C194   1.478       .  S
C94          C95   1.399   1_545  A
C94          H98   1.085       .  S
C95          C96   1.401       .  A
C95         C169   1.480       .  S
C96          H99   1.084       .  S
C100        C101   1.408       .  A
C100        C105   1.410       .  A
C100        C155   1.482       .  S
C101        C102   1.400   1_565  A
C101        H106   1.084   1_565  S
C102        C103   1.399   1_545  A
C102        C239   1.479       .  S
C103        C104   1.400       .  A
C103        H107   1.085       .  S
C104        C105   1.403       .  A
C104        C166   1.483       .  S
C105        H108   1.083       .  S
O109       Cu117   2.015   1_565  S
O109        C119   1.279       .  A
O110       Cu117   2.005       .  S
O110        C120   1.277   1_455  A
O111       Cu117   2.006   1_655  S
O111        C121   1.277       .  A
O112       Cu117   2.009       .  S
O112        C122   1.277       .  A
O113       Cu118   2.007       .  S
O113        C122   1.277       .  A
O114       Cu118   2.007   1_655  S
O114        C121   1.277       .  A
O115       Cu118   2.015   1_655  S
O115        C120   1.279       .  A
O116       Cu118   2.003   1_565  S
O116        C119   1.278       .  A
Cu117      Cu118   2.376       .  S
C119        C323   1.480       .  S
C120        C267   1.477       .  S
C121        C211   1.468       .  S
C122        C152   1.470       .  S
O123       Cu131   2.009   1_565  S
O123        C133   1.278       .  A
O124       Cu131   2.002       .  S
O124        C134   1.277       .  A
O125       Cu131   2.007   1_556  S
O125        C135   1.278       .  A
O126       Cu131   1.999       .  S
O126        C136   1.277       .  A
O127       Cu132   2.011   1_554  S
O127        C136   1.279       .  A
O128       Cu132   2.007       .  S
O128        C135   1.278       .  A
O129       Cu132   2.008       .  S
O129        C134   1.278   1_556  A
O130       Cu132   2.001   1_564  S
O130        C133   1.276       .  A
Cu131      Cu132   2.375   1_554  S
C133        C477   1.472       .  S
C134        C407   1.476       .  S
C135        C253   1.477       .  S
C136        C180   1.478       .  S
O137       Cu145   2.000       .  S
O137        C147   1.276   1_554  A
O138       Cu145   2.010   1_455  S
O138        C148   1.278       .  A
O139       Cu145   2.005       .  S
O139        C149   1.277       .  A
O140       Cu145   2.013   1_556  S
O140        C150   1.278       .  A
O141       Cu146   2.005       .  S
O141        C150   1.277       .  A
O142       Cu146   2.012   1_554  S
O142        C149   1.278       .  A
O143       Cu146   2.005   1_455  S
O143        C148   1.278   1_556  A
O144       Cu146   2.012       .  S
O144        C147   1.278       .  A
Cu145      Cu146   2.377   1_554  S
C147        C432   1.468   1_556  S
C148        C379   1.480       .  S
C149        C295   1.470       .  S
C150        C362   1.472       .  S
C151        C152   1.400   1_565  A
C151        C156   1.402       .  A
C151        H158   1.084       .  S
C152        C153   1.407       .  A
C153        C154   1.405       .  A
C153        N160   1.438       .  S
C154        C155   1.406   1_545  A
C154        H159   1.084       .  S
C155        C156   1.420       .  A
C156        N157   1.440       .  S
N157        H161   1.046       .  S
N157        H162   1.042       .  S
N160        H163   1.046       .  S
N160        H164   1.046       .  S
C165        C166   1.404       .  A
C165        C170   1.402       .  A
C165        H172   1.084       .  S
C166        C167   1.413   1_565  A
C167        C168   1.409       .  A
C167        N174   1.437       .  S
C168        C169   1.403   1_545  A
C168        H173   1.084       .  S
C169        C170   1.409       .  A
C170        N171   1.438       .  S
N171        H175   1.046       .  S
N171        H176   1.045       .  S
N174        H177   1.044       .  S
N174        H178   1.046       .  S
C179        C180   1.403   1_565  A
C179        C184   1.404       .  A
C179        H186   1.084       .  S
C180        C181   1.412       .  A
C181        C182   1.404       .  A
C181        N188   1.438       .  S
C182        C183   1.404       .  A
C182        H187   1.084       .  S
C183        C184   1.414   1_545  A
C184        N185   1.438       .  S
N185        H189   1.046       .  S
N185        H190   1.046       .  S
N188        H191   1.046       .  S
N188        H192   1.046       .  S
C193        C194   1.400       .  A
C193        C198   1.400       .  A
C193        H200   1.084       .  S
C194        C195   1.412   1_545  A
C195        C196   1.410       .  A
C195        N202   1.438       .  S
C196        C197   1.403   1_565  A
C196        H201   1.084       .  S
C197        C198   1.412       .  A
C198        N199   1.438       .  S
N199        H203   1.046       .  S
N199        H204   1.045       .  S
N202        H205   1.046       .  S
N202        H206   1.046       .  S
C207        C208   1.402   1_565  A
C207        C212   1.401       .  A
C207        H214   1.084       .  S
C208        C209   1.417       .  A
C209        C210   1.400       .  A
C209        N216   1.439       .  S
C210        C211   1.401       .  A
C210        H215   1.085       .  S
C211        C212   1.416   1_545  A
C212        N213   1.439       .  S
N213        H217   1.046       .  S
N213        H218   1.043       .  S
N216        H219   1.043       .  S
N216        H220   1.046       .  S
C221        C222   1.402       .  A
C221        C226   1.394       .  A
C221        H228   1.084       .  S
C222        C223   1.412   1_545  A
C223        C224   1.412       .  A
C223        N230   1.437       .  S
C224        C225   1.405   1_565  A
C224        H229   1.084       .  S
C225        C226   1.407       .  A
C226        N227   1.433       .  S
N227        H231   1.045       .  S
N227        H232   1.046       .  S
N230        H233   1.045       .  S
N230        H234   1.046       .  S
C235        C236   1.404       .  A
C235        C240   1.399       .  A
C235        H242   1.084       .  S
C236        C237   1.411   1_545  A
C237        C238   1.411       .  A
C237        N244   1.437       .  S
C238        C239   1.405   1_565  A
C238        H243   1.084       .  S
C239        C240   1.408       .  A
C240        N241   1.438       .  S
N241        H245   1.046       .  S
N241        H246   1.046       .  S
N244        H247   1.046       .  S
N244        H248   1.046       .  S
C249        C250   1.406   1_545  A
C249        C254   1.405       .  A
C249        H256   1.083       .  S
C250        C251   1.415       .  A
C251        C252   1.405       .  A
C251        N258   1.438       .  S
C252        C253   1.402   1_565  A
C252        H257   1.084       .  S
C253        C254   1.410       .  A
C254        N255   1.438       .  S
N255        H259   1.046       .  S
N255        H260   1.046       .  S
N258        H261   1.045       .  S
N258        H262   1.046       .  S
C263        C264   1.403   1_655  A
C263        C268   1.403       .  A
C263        H270   1.084       .  S
C264        C265   1.411       .  A
C265        C266   1.405       .  A
C265        N272   1.438       .  S
C266        C267   1.403   1_455  A
C266        H271   1.084       .  S
C267        C268   1.419       .  A
C268        N269   1.440       .  S
N269        H273   1.046       .  S
N269        H274   1.042       .  S
N272        H275   1.046       .  S
N272        H276   1.046       .  S
C277        C278   1.402       .  A
C277        C282   1.400       .  A
C277        H284   1.084       .  S
C278        C279   1.411   1_455  A
C279        C280   1.410       .  A
C279        N286   1.437       .  S
C280        C281   1.404   1_655  A
C280        H285   1.084       .  S
C281        C282   1.410       .  A
C282        N283   1.438       .  S
N283        H287   1.046       .  S
N283        H288   1.045       .  S
N286        H289   1.046       .  S
N286        H290   1.046       .  S
C291        C292   1.402       .  A
C291        C296   1.406       .  A
C291        H298   1.084       .  S
C292        C293   1.411   1_655  A
C293        C294   1.406       .  A
C293        N300   1.438       .  S
C294        C295   1.401   1_455  A
C294        H299   1.084       .  S
C295        C296   1.409       .  A
C296        N297   1.438       .  S
N297        H301   1.046       .  S
N297        H302   1.045       .  S
N300        H303   1.045       .  S
N300        H304   1.046       .  S
C305        C306   1.402       .  A
C305        C310   1.401       .  A
C305        H312   1.084       .  S
C306        C307   1.417   1_655  A
C307        C308   1.402       .  A
C307        N314   1.439       .  S
C308        C309   1.402   1_455  A
C308        H313   1.084       .  S
C309        C310   1.415       .  A
C310        N311   1.438       .  S
N311        H315   1.046       .  S
N311        H316   1.044       .  S
N314        H317   1.043       .  S
N314        H318   1.046       .  S
C319        C320   1.407   1_655  A
C319        C324   1.406       .  A
C319        H326   1.083       .  S
C320        C321   1.415       .  A
C321        C322   1.405       .  A
C321        N328   1.438       .  S
C322        C323   1.403       .  A
C322        H327   1.084       .  S
C323        C324   1.411   1_455  A
C324        N325   1.438       .  S
N325        H329   1.046       .  S
N325        H330   1.046       .  S
N328        H331   1.046       .  S
N328        H332   1.046       .  S
C333        C334   1.402       .  A
C333        C338   1.398       .  A
C333        H340   1.084       .  S
C334        C335   1.418   1_455  A
C335        C336   1.404       .  A
C335        N342   1.438       .  S
C336        C337   1.403   1_655  A
C336        H341   1.084       .  S
C337        C338   1.416       .  A
C338        N339   1.438       .  S
N339        H343   1.046       .  S
N339        H344   1.044       .  S
N342        H345   1.042       .  S
N342        H346   1.045       .  S
C347        C348   1.403   1_655  A
C347        C352   1.403       .  A
C347        H354   1.084       .  S
C348        C349   1.414       .  A
C349        C350   1.399       .  A
C349        N356   1.438       .  S
C350        C351   1.402   1_455  A
C350        H355   1.084       .  S
C351        C352   1.416       .  A
C352        N353   1.438       .  S
N353        H357   1.046       .  S
N353        H358   1.043       .  S
N356        H359   1.044       .  S
N356        H360   1.046       .  S
C361        C362   1.403       .  A
C361        C366   1.406       .  A
C361        H368   1.084       .  S
C362        C363   1.416   1_655  A
C363        C364   1.401       .  A
C363        N370   1.439       .  S
C364        C365   1.403   1_455  A
C364        H369   1.084       .  S
C365        C366   1.412       .  A
C366        N367   1.438       .  S
N367        H371   1.046       .  S
N367        H372   1.044       .  S
N370        H373   1.043       .  S
N370        H374   1.045       .  S
C375        C376   1.406       .  A
C375        C380   1.406       .  A
C375        H382   1.083       .  S
C376        C377   1.416   1_554  A
C377        C378   1.405       .  A
C377        N384   1.438       .  S
C378        C379   1.403   1_556  A
C378        H383   1.084       .  S
C379        C380   1.412       .  A
C380        N381   1.438       .  S
N381        H385   1.046       .  S
N381        H386   1.045       .  S
N384        H387   1.046       .  S
N384        H388   1.046       .  S
C389        C390   1.403       .  A
C389        C394   1.401       .  A
C389        H396   1.084       .  S
C390        C391   1.419   1_556  A
C391        C392   1.404       .  A
C391        N398   1.438       .  S
C392        C393   1.402   1_554  A
C392        H397   1.084       .  S
C393        C394   1.408       .  A
C394        N395   1.438       .  S
N395        H399   1.046       .  S
N395        H400   1.045       .  S
N398        H401   1.042       .  S
N398        H402   1.046       .  S
C403        C404   1.406   1_556  A
C403        C408   1.405       .  A
C403        H410   1.083       .  S
C404        C405   1.414       .  A
C405        C406   1.404       .  A
C405        N412   1.438       .  S
C406        C407   1.402       .  A
C406        H411   1.084       .  S
C407        C408   1.410   1_554  A
C408        N409   1.438       .  S
N409        H413   1.046       .  S
N409        H414   1.046       .  S
N412        H415   1.045       .  S
N412        H416   1.046       .  S
C417        C418   1.403       .  A
C417        C422   1.406       .  A
C417        H424   1.084       .  S
C418        C419   1.408   1_554  A
C419        C420   1.400       .  A
C419        N426   1.438       .  S
C420        C421   1.403   1_556  A
C420        H425   1.084       .  S
C421        C422   1.418       .  A
C422        N423   1.438       .  S
N423        H427   1.046       .  S
N423        H428   1.042       .  S
N426        H429   1.045       .  S
N426        H430   1.046       .  S
C431        C432   1.402       .  A
C431        C436   1.404       .  A
C431        H438   1.083       .  S
C432        C433   1.415   1_554  A
C433        C434   1.401       .  A
C433        N440   1.439       .  S
C434        C435   1.403   1_556  A
C434        H439   1.084       .  S
C435        C436   1.410       .  A
C436        N437   1.438       .  S
N437        H441   1.046       .  S
N437        H442   1.044       .  S
N440        H443   1.042       .  S
N440        H444   1.046       .  S
C445        C446   1.405   1_554  A
C445        C450   1.412       .  A
C445        H452   1.083       .  S
C446        C447   1.407       .  A
C447        C448   1.395       .  A
C447        N454   1.433       .  S
C448        C449   1.402       .  A
C448        H453   1.084       .  S
C449        C450   1.412   1_556  A
C450        N451   1.437       .  S
N451        H455   1.046       .  S
N451        H456   1.045       .  S
N454        H457   1.045       .  S
N454        H458   1.046       .  S
C459        C460   1.405   1_554  A
C459        C464   1.412       .  A
C459        H466   1.083       .  S
C460        C461   1.409       .  A
C461        C462   1.396       .  A
C461        N468   1.433       .  S
C462        C463   1.401       .  A
C462        H467   1.084       .  S
C463        C464   1.412   1_556  A
C464        N465   1.437       .  S
N465        H469   1.046       .  S
N465        H470   1.045       .  S
N468        H471   1.045       .  S
N468        H472   1.046       .  S
C473        C474   1.404       .  A
C473        C478   1.400       .  A
C473        H480   1.084       .  S
C474        C475   1.418   1_554  A
C475        C476   1.400       .  A
C475        N482   1.438       .  S
C476        C477   1.402   1_556  A
C476        H481   1.085       .  S
C477        C478   1.416       .  A
C478        N479   1.438       .  S
N479        H483   1.045       .  S
N479        H484   1.042       .  S
N482        H485   1.043       .  S
N482        H486   1.045       .  S
