geometry optimzed in LAMMPS
_audit_creation_date              2020-11-30 
_audit_creation_method            'lammps2cif' 
_symmetry_space_group_name_H-M    'P1' 
_symmetry_Int_Tables_number       1 
_symmetry_cell_setting            triclinic 
loop_ 
_symmetry_equiv_pos_as_xyz 
  x,y,z 
_cell_length_a                    42.1376290509261 
_cell_length_b                    42.14377333526099 
_cell_length_c                    42.143848178211954 
_cell_angle_alpha                 89.84002449579216 
_cell_angle_beta                  89.72340723849364 
_cell_angle_gamma                 90.13361086764642 
loop_ 
_atom_site_label 
_atom_site_type_symbol 
_atom_site_fract_x 
_atom_site_fract_y 
_atom_site_fract_z 
_atom_site_charge 
N1          N  0.43235985  0.68086793  0.99987201    -0.26750
N2          N  0.45199820  0.65664943  0.00002861    -0.34610
C3          C  0.43578757  0.62953145  0.00000406     0.01590
C4          C  0.40380029  0.63633434  0.99980778     0.07610
C5          C  0.40221874  0.66941735  0.99972229    -0.05490
H6          H  0.44692010  0.60644992  0.00007921     0.08280
H7          H  0.38102726  0.68385863  0.99956480     0.09480
Cu8        Cu  0.50009898  0.66026096  0.00014383     0.44170
Cu9        Cu  0.45317684  0.72589199  0.99992996     0.41990
Cu10       Cu  0.54711424  0.72600553  0.99980974     0.43880
N11         N  0.54818658  0.65668607  0.00007140    -0.34140
N12         N  0.56786636  0.68096693  0.99995206    -0.28390
C13         C  0.59798465  0.66958284  0.99993146    -0.04490
C14         C  0.59634511  0.63648614  0.00002984     0.07720
C15         C  0.56434603  0.62959643  0.00011495     0.01520
H16         H  0.61920800  0.68407681  0.99983596     0.09170
H17         H  0.55318895  0.60647831  0.00020237     0.08250
N18         N  0.51595354  0.76482729  0.99989778    -0.35590
N19         N  0.48435544  0.76474653  0.00014046    -0.27770
C20         C  0.47410216  0.79494951  0.00042828    -0.03010
C21         C  0.50009936  0.81492621  0.00027855     0.05600
C22         C  0.52614886  0.79510996  0.99991135     0.03690
H23         H  0.44938807  0.80186717  0.00051321     0.08800
H24         H  0.55084778  0.80219291  0.99987495     0.07630
N25         N  0.66571343  0.58338266  0.00011363    -0.26750
N26         N  0.64149592  0.56363673  0.00009630    -0.34610
C27         C  0.61435347  0.57971259  0.00003837     0.01590
C28         C  0.62115946  0.61173169  0.00003210     0.07610
C29         C  0.65425339  0.61346343  0.00007781    -0.05490
H30         H  0.59126343  0.56849102  0.00001322     0.08280
H31         H  0.66869357  0.63471949  0.00009777     0.09480
Cu32       Cu  0.64541006  0.51559889  0.00015274     0.44170
Cu33       Cu  0.71073588  0.56266969  0.00019178     0.41990
Cu34       Cu  0.71145087  0.46877090  0.99943773     0.43880
N35         N  0.64211532  0.46751395  0.99985546    -0.34140
N36         N  0.66639363  0.44794065  0.99943071    -0.28390
C37         C  0.65499628  0.41778444  0.99915770    -0.04490
C38         C  0.62190571  0.41930570  0.99947658     0.07720
C39         C  0.61503119  0.45125322  0.99990799     0.01520
H40         H  0.66947690  0.39662279  0.99880943     0.09170
H41         H  0.59191950  0.46233063  0.00015329     0.08250
N42         N  0.75008909  0.50027639  0.00005324    -0.35590
N43         N  0.74978436  0.53186088  0.00029865    -0.27770
C44         C  0.77991515  0.54244390  0.00067105    -0.03010
C45         C  0.80010975  0.51669008  0.00065585     0.05600
C46         C  0.78044402  0.49042173  0.00028273     0.03690
H47         H  0.78663137  0.56723228  0.00110587     0.08800
H48         H  0.78767636  0.46580364  0.99996904     0.07630
N49         N  0.56856930  0.34997125  0.99787540    -0.26750
N50         N  0.54894179  0.37413310  0.99961458    -0.34610
C51         C  0.56513993  0.40122797  0.00062087     0.01590
C52         C  0.59711045  0.39446126  0.99941135     0.07610
C53         C  0.59870264  0.36143072  0.99770489    -0.05490
H54         H  0.55401102  0.42427081  0.00199201     0.08280
H55         H  0.61988855  0.34703980  0.99632521     0.09480
Cu56       Cu  0.50089114  0.37045709  0.00010007     0.44170
Cu57       Cu  0.54769998  0.30502942  0.99631514     0.41990
Cu58       Cu  0.45399302  0.30479471  0.00364669     0.43880
N59         N  0.45285161  0.37403304  0.00058863    -0.34140
N60         N  0.43318450  0.34979104  0.00223972    -0.28390
C61         C  0.40307496  0.36119374  0.00243271    -0.04490
C62         C  0.40472659  0.39425637  0.00080728     0.07720
C63         C  0.43670856  0.40110885  0.99964859     0.01520
H64         H  0.38185400  0.34674167  0.00372159     0.09170
H65         H  0.44787071  0.42419579  0.99836516     0.08250
N66         N  0.48520856  0.26604339  0.00191910    -0.35590
N67         N  0.51658271  0.26618380  0.99821366    -0.27770
C68         C  0.52679733  0.23601369  0.99686402    -0.03010
C69         C  0.50107614  0.21583444  0.00026837     0.05600
C70         C  0.47519545  0.23574483  0.00349765     0.03690
H71         H  0.55135066  0.22930350  0.99352619     0.08800
H72         H  0.45068724  0.22875632  0.00686884     0.07630
N73         N  0.33448999  0.58281038  0.99910556    -0.26750
N74         N  0.35878644  0.56325786  0.99955427    -0.34610
C75         C  0.38585487  0.57953777  0.99992895     0.01590
C76         C  0.37897971  0.61148685  0.99967572     0.07610
C77         C  0.34588170  0.61298153  0.99916020    -0.05490
H78         H  0.40896412  0.56846563  0.00032033     0.08280
H79         H  0.33139446  0.63413886  0.99883949     0.09480
Cu80       Cu  0.35562045  0.51515838  0.99958784     0.44170
Cu81       Cu  0.28940562  0.56190763  0.99867032     0.41990
Cu82       Cu  0.29046215  0.46807048  0.00210248     0.43880
N83         N  0.35962765  0.46712232  0.00011464    -0.34140
N84         N  0.33543075  0.44738204  0.00132279    -0.28390
C85         C  0.34687524  0.41730644  0.00171377    -0.04490
C86         C  0.37994731  0.41902609  0.00066770     0.07720
C87         C  0.38676211  0.45103647  0.99966259     0.01520
H88         H  0.33243822  0.39606610  0.00272399     0.09170
H89         H  0.40985006  0.46224276  0.99882013     0.08250
N90         N  0.25133432  0.49866800  0.00115147    -0.35590
N91         N  0.25084593  0.53020466  0.99950042    -0.27770
C92         C  0.22041228  0.53980930  0.99885758    -0.03010
C93         C  0.20086707  0.51342414  0.00029731     0.05600
C94         C  0.22128614  0.48788296  0.00178559     0.03690
H95         H  0.21305605  0.56434714  0.99734641     0.08800
H96         H  0.21479257  0.46307944  0.00343086     0.07630
N97         N  0.00065965  0.58322008  0.66562652    -0.26750
N98         N  0.00031412  0.56347124  0.64150811    -0.34610
C99         C  0.00004709  0.57950489  0.61428393     0.01590
C100        C  0.00022207  0.61150253  0.62087572     0.07610
C101        C  0.00060612  0.61328898  0.65396061    -0.05490
H102        H  0.99975879  0.56824598  0.59127622     0.08280
H103        H  0.00085444  0.63457142  0.66825098     0.09480
Cu104      Cu  0.00026772  0.51546008  0.64525634     0.44170
Cu105      Cu  0.00115473  0.56257997  0.71085265     0.41990
Cu106      Cu  0.99994037  0.46861594  0.71074131     0.43880
N107        N  0.00032697  0.46745325  0.64154163    -0.34140
N108        N  0.00020331  0.44776839  0.66581194    -0.28390
C109        C  0.00035399  0.41766461  0.65443660    -0.04490
C110        C  0.00058825  0.41933383  0.62134549     0.07720
C111        C  0.00055597  0.45132848  0.61445130     0.01520
H112        H  0.00033391  0.39643815  0.66892997     0.09170
H113        H  0.00069778  0.46250965  0.59133453     0.08250
N114        N  0.00021016  0.49962258  0.74960401    -0.35590
N115        N  0.00105926  0.53122448  0.74972893    -0.27770
C116        C  0.00149808  0.54121170  0.78004740    -0.03010
C117        C  0.00071441  0.51501013  0.79969689     0.05600
C118        C  0.99986497  0.48916003  0.77979532     0.03690
H119        H  0.00213963  0.56582554  0.78724840     0.08800
H120        H  0.99920365  0.46443203  0.78673938     0.07630
N121        N  0.99995865  0.68051568  0.56709351    -0.26750
N122        N  0.99986866  0.65624093  0.54755092    -0.34610
C123        C  0.99994613  0.62918148  0.56389807     0.01590
C124        C  0.00008432  0.63615136  0.59586147     0.07610
C125        C  0.00009228  0.66922374  0.59727942    -0.05490
H126        H  0.99994080  0.60604295  0.55290532     0.08280
H127        H  0.00022518  0.68376846  0.61838895     0.09480
Cu128      Cu  0.99978486  0.66007944  0.49942191     0.44170
Cu129      Cu  0.00009191  0.72535670  0.54607898     0.41990
Cu130      Cu  0.00102830  0.72646472  0.45224133     0.43880
N131        N  0.99999572  0.65698383  0.45126867    -0.34140
N132        N  0.00053533  0.68130818  0.43161562    -0.28390
C133        C  0.00076476  0.66994395  0.40148448    -0.04490
C134        C  0.00035355  0.63683627  0.40308137     0.07720
C135        C  0.99986045  0.62993087  0.43507209     0.01520
H136        H  0.00129081  0.68446035  0.38027532     0.09170
H137        H  0.99951724  0.60680405  0.44622293     0.08250
N138        N  0.00138067  0.76505968  0.48375716    -0.35590
N139        N  0.00091171  0.76443756  0.51533701    -0.27770
C140        C  0.00129984  0.79439746  0.52614186    -0.03010
C141        C  0.00203204  0.81489246  0.50057130     0.05600
C142        C  0.00212701  0.79555466  0.47412362     0.03690
H143        H  0.00130644  0.80078694  0.55099088     0.08800
H144        H  0.00249277  0.80310667  0.44956294     0.07630
N145        N  0.00095350  0.58349726  0.33383331    -0.26750
N146        N  0.00080766  0.56385211  0.35814979    -0.34610
C147        C  0.00058796  0.58003924  0.38520835     0.01590
C148        C  0.00060675  0.61203557  0.37829306     0.07610
C149        C  0.00085109  0.61363105  0.34518222    -0.05490
H150        H  0.00042164  0.56888579  0.40833608     0.08280
H151        H  0.00089088  0.63483632  0.33065673     0.09480
Cu152      Cu  0.00081593  0.51575495  0.35475016     0.44170
Cu153      Cu  0.00107379  0.56263086  0.28881742     0.41990
Cu154      Cu  0.99921495  0.46872687  0.28927665     0.43880
N155        N  0.00047042  0.46767273  0.35858578    -0.34140
N156        N  0.99969424  0.44797743  0.33443603    -0.28390
C157        C  0.99948457  0.41787278  0.34601506    -0.04490
C158        C  0.00020885  0.41954097  0.37909668     0.07720
C159        C  0.00081369  0.45154244  0.38576765     0.01520
H160        H  0.99889078  0.39664005  0.33166257     0.09170
H161        H  0.00137219  0.46272797  0.40880537     0.08250
N162        N  0.99976160  0.49980587  0.25021202    -0.35590
N163        N  0.00058069  0.53138664  0.25004004    -0.27770
C164        C  0.00092836  0.54151362  0.21972269    -0.03010
C165        C  0.00025462  0.51545581  0.19989298     0.05600
C166        C  0.99951096  0.48951396  0.22001527     0.03690
H167        H  0.00180484  0.56619511  0.21262715     0.08800
H168        H  0.99866509  0.46479344  0.21320223     0.07630
N169        N  0.99894356  0.35035739  0.43281867    -0.26750
N170        N  0.00076779  0.37460538  0.45231228    -0.34610
C171        C  0.00166250  0.40165990  0.43597466     0.01590
C172        C  0.00032135  0.39477669  0.40403915     0.07610
C173        C  0.99862987  0.36171398  0.40263788    -0.05490
H174        H  0.00299346  0.42475838  0.44697268     0.08280
H175        H  0.99707087  0.34723724  0.38154356     0.09480
Cu176      Cu  0.00128004  0.37091523  0.50040069     0.44170
Cu177      Cu  0.99695154  0.30547089  0.45401157     0.41990
Cu178      Cu  0.99981668  0.30488251  0.54778306     0.43880
N179        N  0.00118998  0.37429374  0.54849274    -0.34140
N180        N  0.00068665  0.35003648  0.56822068    -0.28390
C181        C  0.00049425  0.36146628  0.59830808    -0.04490
C182        C  0.00087133  0.39455008  0.59659989     0.07720
C183        C  0.00130818  0.40139634  0.56460178     0.01520
H184        H  0.99994693  0.34700887  0.61955655     0.09170
H185        H  0.00157940  0.42450134  0.55339868     0.08250
N186        N  0.99786352  0.26612268  0.51664489    -0.35590
N187        N  0.99645374  0.26646694  0.48510283    -0.27770
C188        C  0.99539148  0.23636635  0.47468300    -0.03010
C189        C  0.99637651  0.21606738  0.50046490     0.05600
C190        C  0.99790089  0.23573794  0.52661962     0.03690
H191        H  0.99421166  0.22973257  0.44993360     0.08800
H192        H  0.99945532  0.22850111  0.55121634     0.07630
N193        N  0.43344958  0.01983082  0.66556078    -0.26750
N194        N  0.45296779  0.01640712  0.64137098    -0.34610
C195        C  0.43669857  0.01441498  0.61448588     0.01590
C196        C  0.40479909  0.01679547  0.62143270     0.07610
C197        C  0.40331595  0.02017575  0.65434061    -0.05490
H198        H  0.44773639  0.01176865  0.59144110     0.08280
H199        H  0.38221272  0.02289303  0.66879166     0.09480
Cu200      Cu  0.50098259  0.01557669  0.64473735     0.44170
Cu201      Cu  0.45446266  0.02291463  0.71020632     0.41990
Cu202      Cu  0.54721527  0.00817969  0.71001874     0.43880
N203        N  0.54901515  0.01480572  0.64115154    -0.34140
N204        N  0.56844124  0.01140751  0.66525076    -0.28390
C205        C  0.59862409  0.01112111  0.65385700    -0.04490
C206        C  0.59726156  0.01447318  0.62093133     0.07720
C207        C  0.56538576  0.01681393  0.61416322     0.01520
H208        H  0.61967243  0.00838980  0.66819548     0.09170
H209        H  0.55443461  0.01947286  0.59117078     0.08250
N210        N  0.51602296  0.01164740  0.74875405    -0.35590
N211        N  0.48542177  0.01923960  0.74881642    -0.27770
C212        C  0.47558383  0.02218567  0.77904725    -0.03010
C213        C  0.50058617  0.01534515  0.79915045     0.05600
C214        C  0.52569421  0.00857422  0.77894628     0.03690
H215        H  0.45174751  0.02894025  0.78577035     0.08800
H216        H  0.54950153  0.00181468  0.78557572     0.07630
N217        N  0.66671388  0.01474701  0.56754314    -0.26750
N218        N  0.64251872  0.01515306  0.54793554    -0.34610
C219        C  0.61537075  0.01505676  0.56415807     0.01590
C220        C  0.62213320  0.01452557  0.59611487     0.07610
C221        C  0.65521068  0.01428932  0.59768367    -0.05490
H222        H  0.59229823  0.01524878  0.55306055     0.08280
H223        H  0.66961165  0.01402263  0.61886337     0.09480
Cu224      Cu  0.64612352  0.01566028  0.49987579     0.44170
Cu225      Cu  0.71179990  0.01548292  0.54674265     0.41990
Cu226      Cu  0.71168785  0.01830690  0.45285259     0.43880
N227        N  0.64247962  0.01555993  0.45184598    -0.34140
N228        N  0.66674454  0.01658016  0.43211512    -0.28390
C229        C  0.65536258  0.01655428  0.40203108    -0.04490
C230        C  0.62227639  0.01549863  0.40375816     0.07720
C231        C  0.61539619  0.01486012  0.43576604     0.01520
H232        H  0.66984105  0.01749195  0.38077906     0.09170
H233        H  0.59228358  0.01411974  0.44698807     0.08250
N234        N  0.75048886  0.01975823  0.48387544    -0.35590
N235        N  0.75056914  0.01822368  0.51544512    -0.27770
C236        C  0.78083431  0.01865873  0.52548912    -0.03010
C237        C  0.80055578  0.02089501  0.49937729     0.05600
C238        C  0.78069038  0.02147487  0.47349569     0.03690
H239        H  0.78796878  0.01705010  0.55006966     0.08800
H240        H  0.78770723  0.02221007  0.44877476     0.07630
N241        N  0.43357515  0.01546069  0.33494618    -0.26750
N242        N  0.45321597  0.01577739  0.35911251    -0.34610
C243        C  0.43701758  0.01574757  0.38627991     0.01590
C244        C  0.40503452  0.01537199  0.37956797     0.07610
C245        C  0.40343823  0.01517853  0.34648784    -0.05490
H246        H  0.44815070  0.01589195  0.40932951     0.08280
H247        H  0.38224013  0.01486969  0.33211155     0.09480
Cu248      Cu  0.50130280  0.01598514  0.35537601     0.44170
Cu249      Cu  0.45440250  0.01548994  0.28985307     0.41990
Cu250      Cu  0.54836654  0.01527289  0.28963616     0.43880
N251        N  0.54937343  0.01579747  0.35890324    -0.34140
N252        N  0.56908253  0.01556402  0.33460289    -0.28390
C253        C  0.59918615  0.01548203  0.34594122    -0.04490
C254        C  0.59750363  0.01562074  0.37903471     0.07720
C255        C  0.56549764  0.01582536  0.38596774     0.01520
H256        H  0.62042524  0.01525481  0.33141893     0.09170
H257        H  0.55430839  0.01600638  0.40910062     0.08250
N258        N  0.51726993  0.01522596  0.25088254    -0.35590
N259        N  0.48567300  0.01556285  0.25096366    -0.27770
C260        C  0.47551145  0.01573801  0.22075059    -0.03010
C261        C  0.50157267  0.01537995  0.20079556     0.05600
C262        C  0.52755537  0.01503582  0.22061088     0.03690
H263        H  0.45082175  0.01586626  0.21381199     0.08800
H264        H  0.55227320  0.01486987  0.21353515     0.07630
N265        N  0.33548498  0.01767621  0.56857164    -0.26750
N266        N  0.35967046  0.01588005  0.54880232    -0.34610
C267        C  0.38677308  0.01516915  0.56482419     0.01590
C268        C  0.37998749  0.01665245  0.59680392     0.07610
C269        C  0.34695099  0.01824579  0.59860505    -0.05490
H270        H  0.40983925  0.01393836  0.55356364     0.08280
H271        H  0.33255086  0.01970756  0.61986965     0.09480
Cu272      Cu  0.35619817  0.01514809  0.50077970     0.44170
Cu273      Cu  0.29041267  0.01867324  0.54821903     0.41990
Cu274      Cu  0.29088901  0.01214395  0.45451539     0.43880
N275        N  0.35997645  0.01503403  0.45273706    -0.34140
N276        N  0.33574905  0.01371692  0.43322833    -0.28390
C277        C  0.34715142  0.01376925  0.40304232    -0.04490
C278        C  0.38022308  0.01517877  0.40448139     0.07720
C279        C  0.38706438  0.01597928  0.43642438     0.01520
H280        H  0.33269839  0.01273321  0.38192321     0.09170
H281        H  0.41014696  0.01704035  0.44744903     0.08250
N282        N  0.25204244  0.01287123  0.48583306    -0.35590
N283        N  0.25172899  0.01624998  0.51720852    -0.27770
C284        C  0.22136893  0.01704403  0.52724428    -0.03010
C285        C  0.20160760  0.01372793  0.50133898     0.05600
C286        C  0.22194634  0.01093915  0.47563649     0.03690
H287        H  0.21424789  0.02008369  0.55174290     0.08800
H288        H  0.21539559  0.00772415  0.45106502     0.07630
O289        O  0.00121423  0.96652298  0.47488392    -0.72410
O290        O  0.00059912  0.06241738  0.47158613    -0.73390
O291        O  0.04813826  0.01404131  0.47305938    -0.62010
O292        O  0.95326282  0.01437600  0.47176292    -0.70420
O293        O  0.95201643  0.01489342  0.52446570    -0.69970
O294        O  0.04789740  0.01610018  0.52552056    -0.61220
O295        O  0.99923491  0.06309784  0.52416520    -0.73730
O296        O  0.00083711  0.96841096  0.52749635    -0.72510
Cu297      Cu  0.00081541  0.01429929  0.47098675     1.04560
Cu298      Cu  0.99994892  0.01572236  0.52723469     1.04330
C299        C  0.00165583  0.95246248  0.50185512     0.93790
C300        C  0.99943065  0.07787515  0.49769044     0.92930
C301        C  0.06318849  0.01451579  0.49923617     0.85080
C302        C  0.93767307  0.01478145  0.49776363     0.91350
O303        O  0.47411387  0.96763644  0.00111255    -0.72410
O304        O  0.47501203  0.06265820  0.00160678    -0.73390
O305        O  0.47445108  0.01590378  0.95366077    -0.62010
O306        O  0.47488799  0.01499554  0.04875508    -0.70420
O307        O  0.52760831  0.01472562  0.04808122    -0.69970
O308        O  0.52680681  0.01408602  0.95309680    -0.61220
O309        O  0.52757278  0.06227024  0.00002088    -0.73730
O310        O  0.52681946  0.96713491  0.00078000    -0.72510
Cu311      Cu  0.47278337  0.01527186  0.00129726     1.04560
Cu312      Cu  0.52903587  0.01456857  0.00050133     1.04330
C313        C  0.50030258  0.95242171  0.00089329     0.93790
C314        C  0.50141191  0.07756837  0.00070869     0.92930
C315        C  0.50055597  0.01506347  0.93811974     0.85080
C316        C  0.50136314  0.01488431  0.06336918     0.91350
O317        O  0.99901653  0.48734556  0.95208544    -0.72410
O318        O  0.99971632  0.48820925  0.04732425    -0.73390
O319        O  0.95183908  0.48980047  0.00039887    -0.62010
O320        O  0.04701270  0.48597329  0.99946252    -0.70420
O321        O  0.04875875  0.53858620  0.99950888    -0.69970
O322        O  0.95382534  0.54242419  0.99893679    -0.61220
O323        O  0.00081377  0.54087654  0.04673036    -0.73730
O324        O  0.00191752  0.54000557  0.95149351    -0.72510
Cu325      Cu  0.99930945  0.48597863  0.99978673     1.04560
Cu326      Cu  0.00140710  0.54230023  0.99910089     1.04330
C327        C  0.00051019  0.51355125  0.93685474     0.93790
C328        C  0.00026838  0.51466359  0.06203782     0.92930
C329        C  0.93782844  0.51666666  0.99996832     0.85080
C330        C  0.06292674  0.51181999  0.99980492     0.91350
C331        C  0.16619044  0.01362760  0.50087170    -0.04800
C332        C  0.14979637  0.03032727  0.47690227    -0.01920
C333        C  0.11651625  0.02822103  0.47475239     0.03070
C334        C  0.09865551  0.01310280  0.49905930    -0.04800
C335        C  0.11503251  0.99617345  0.52298644    -0.01910
C336        C  0.14857586  0.99581820  0.52341923     0.03070
C337        C  0.16684836  0.05092953  0.45498354     0.37720
C338        C  0.09752682  0.97689965  0.54572091     0.37710
C339        C  0.16479715  0.97581147  0.54621878     0.36130
C340        C  0.10136767  0.03991905  0.44623162     0.36130
N341        N  0.17764142  0.95967824  0.56431497    -0.38690
N342        N  0.09004425  0.04796814  0.42259506    -0.38690
N343        N  0.08360387  0.96132360  0.56368905    -0.38130
N344        N  0.18024719  0.06761588  0.43762521    -0.38140
C345        C  0.50162759  0.01530169  0.16557343    -0.04800
C346        C  0.48603392  0.03965855  0.14863823    -0.01920
C347        C  0.48606963  0.03956010  0.11518349     0.03070
C348        C  0.50158775  0.01506727  0.09845741    -0.04800
C349        C  0.51720019  0.99073545  0.11531033    -0.01910
C350        C  0.51724146  0.99085161  0.14877132     0.03070
C351        C  0.47083483  0.06546914  0.16556400     0.37720
C352        C  0.53226580  0.96493556  0.09821292     0.37710
C353        C  0.53238912  0.96512385  0.16586473     0.36130
C354        C  0.47110964  0.06532101  0.09792290     0.36130
N355        N  0.54443599  0.94456805  0.17947867    -0.38690
N356        N  0.45931097  0.08587191  0.08407947    -0.38690
N357        N  0.54417972  0.94434413  0.08453142    -0.38130
N358        N  0.45872422  0.08609167  0.17902089    -0.38140
C359        C  0.83563691  0.01947686  0.49886112    -0.04800
C360        C  0.85364074  0.04619608  0.48943618    -0.01920
C361        C  0.88709682  0.04461223  0.48887265     0.03070
C362        C  0.90258870  0.01602915  0.49686509    -0.04800
C363        C  0.88439808  0.98868321  0.50354149    -0.01910
C364        C  0.85112190  0.99073988  0.50606708     0.03070
C365        C  0.83773403  0.07537236  0.48060073     0.37720
C366        C  0.89927353  0.95778882  0.50377093     0.37710
C367        C  0.83275039  0.96297093  0.51517728     0.36130
C368        C  0.90551777  0.07206217  0.47900909     0.36130
N369        N  0.81812084  0.94089624  0.52268315    -0.38690
N370        N  0.92007043  0.09390397  0.47071240    -0.38690
N371        N  0.91004866  0.93263098  0.50230300    -0.38130
N372        N  0.82500979  0.09859749  0.47342706    -0.38140
C373        C  0.50047065  0.01524524  0.90249074    -0.04800
C374        C  0.52700583  0.02702405  0.88515203    -0.01920
C375        C  0.52683361  0.02741197  0.85164940     0.03070
C376        C  0.50052004  0.01534605  0.83468989    -0.04800
C377        C  0.47415561  0.00328580  0.85191073    -0.01910
C378        C  0.47393569  0.00358650  0.88542485     0.03070
C379        C  0.55457952  0.03966234  0.90143700     0.37720
C380        C  0.44739330  0.98930823  0.83540726     0.37710
C381        C  0.44633743  0.99098414  0.90201458     0.36130
C382        C  0.55361390  0.04146301  0.83488919     0.36130
N383        N  0.42416290  0.98109632  0.91503750    -0.38690
N384        N  0.57514923  0.05260951  0.82180425    -0.38690
N385        N  0.42588086  0.97821452  0.82251004    -0.38130
N386        N  0.57673247  0.04957360  0.91421170    -0.38140
C387        C  0.99705586  0.18072423  0.49986611    -0.04800
C388        C  0.97616906  0.16277629  0.51921224    -0.01920
C389        C  0.97683504  0.12926986  0.51835643     0.03070
C390        C  0.99805325  0.11327105  0.49771289    -0.04800
C391        C  0.01851396  0.13135187  0.47804273    -0.01910
C392        C  0.01846255  0.16478541  0.47955352     0.03070
C393        C  0.95320004  0.17869936  0.53935366     0.37720
C394        C  0.04045115  0.11588804  0.45663818     0.37710
C395        C  0.04168253  0.18267216  0.46120154     0.36130
C396        C  0.95468855  0.11136078  0.53795727     0.36130
N397        N  0.06032847  0.19683208  0.44667084    -0.38690
N398        N  0.93695172  0.09711633  0.55351308    -0.38690
N399        N  0.05810848  0.10449856  0.43900775    -0.38130
N400        N  0.93484843  0.19133891  0.55542827    -0.38140
C401        C  0.00030226  0.51492420  0.09724746    -0.04800
C402        C  0.02250472  0.49646242  0.11417058    -0.01920
C403        C  0.02251990  0.49665282  0.14765474     0.03070
C404        C  0.00031205  0.51532890  0.16454925    -0.04800
C405        C  0.97811332  0.53381566  0.14754348    -0.01730
C406        C  0.97810718  0.53358704  0.11405723     0.03070
C407        C  0.04615776  0.47809954  0.09711919     0.37720
C408        C  0.95440118  0.55222931  0.16440586     0.37710
C409        C  0.95438649  0.55164652  0.09690628     0.36130
C410        C  0.04624067  0.47844437  0.16460903     0.36130
N411        N  0.93545826  0.56595917  0.08317507    -0.38690
N412        N  0.06518842  0.46389663  0.17806276    -0.38690
N413        N  0.93545723  0.56694276  0.17778372    -0.38130
N414        N  0.06502192  0.46351763  0.08348222    -0.38140
C415        C  0.00264584  0.85013731  0.50162121    -0.04800
C416        C  0.98035541  0.86669360  0.52045779    -0.01920
C417        C  0.98192029  0.89999754  0.52279937     0.03070
C418        C  0.00326814  0.91730643  0.50338803    -0.04800
C419        C  0.02625534  0.90081809  0.48538473    -0.01910
C420        C  0.02630923  0.86733041  0.48497377     0.03070
C421        C  0.95470258  0.84973035  0.53619979     0.37720
C422        C  0.05137635  0.91829423  0.46933057     0.37710
C423        C  0.05159866  0.85062528  0.46863291     0.36130
C424        C  0.96202394  0.91617448  0.54579153     0.36130
N425        N  0.07193607  0.83729952  0.45585130    -0.38690
N426        N  0.94643535  0.92892887  0.56448588    -0.38690
N427        N  0.07160884  0.93228699  0.45692317    -0.38130
N428        N  0.93397344  0.83631498  0.54841869    -0.38140
C429        C  0.00068646  0.51459060  0.83478704    -0.04800
C430        C  0.97209206  0.50954020  0.85161101    -0.01920
C431        C  0.97222718  0.50802072  0.88504182     0.03070
C432        C  0.00065917  0.51334481  0.90179409    -0.04800
C433        C  0.02918104  0.51889734  0.88495769    -0.01910
C434        C  0.02931139  0.51876667  0.85149282     0.03070
C435        C  0.94243528  0.50666205  0.83450701     0.37720
C436        C  0.05845922  0.52444692  0.90204473     0.37710
C437        C  0.05897714  0.52222065  0.83420960     0.36130
C438        C  0.94313392  0.50082636  0.90214212     0.36130
N439        N  0.08266093  0.52467398  0.82039303    -0.38690
N440        N  0.91990528  0.49461752  0.91555983    -0.38690
N441        N  0.08186563  0.52912166  0.91551303    -0.38130
N442        N  0.91875997  0.50470661  0.82083808    -0.38140
C443        C  0.16552545  0.51255329  0.00053654    -0.04800
C444        C  0.14897447  0.49184521  0.98001125    -0.01920
C445        C  0.11549795  0.49069884  0.98053467     0.03070
C446        C  0.09818096  0.51104307  0.00081107    -0.04800
C447        C  0.11471881  0.53133494  0.02172308    -0.01910
C448        C  0.14818387  0.53204415  0.02163500     0.03070
C449        C  0.16623619  0.47267655  0.95719637     0.37720
C450        C  0.09733256  0.55055360  0.04444383     0.37710
C451        C  0.16465714  0.55215607  0.04412368     0.36130
C452        C  0.09898094  0.46910290  0.95948242     0.36130
N453        N  0.17768591  0.56823479  0.06209847    -0.38690
N454        N  0.08586598  0.45180272  0.94273878    -0.38690
N455        N  0.08343255  0.56576176  0.06260273    -0.38130
N456        N  0.17993584  0.45744851  0.93890476    -0.38140
C457        C  0.50155673  0.11293361  0.00040861    -0.04800
C458        C  0.52419431  0.13003142  0.01826309    -0.01920
C459        C  0.52399264  0.16352599  0.01828473     0.03070
C460        C  0.50124459  0.18041752  0.00032481    -0.04800
C461        C  0.47870695  0.16329753  0.98234593    -0.01910
C462        C  0.47882003  0.12981561  0.98243325     0.03070
C463        C  0.54712894  0.11327653  0.03766966     0.37720
C464        C  0.45593868  0.17996415  0.96268715     0.37710
C465        C  0.45603316  0.11286327  0.96300945     0.36130
C466        C  0.54661626  0.18042656  0.03789688     0.36130
N467        N  0.43781647  0.09940023  0.94756313    -0.38690
N468        N  0.56476740  0.19375998  0.05352860    -0.38690
N469        N  0.43767321  0.19310601  0.94702383    -0.38130
N470        N  0.56545731  0.09995775  0.05310794    -0.38140
C471        C  0.83539112  0.51722013  0.00087785    -0.04800
C472        C  0.85228210  0.49980616  0.02398497    -0.01920
C473        C  0.88575495  0.49998517  0.02389272     0.03070
C474        C  0.90264219  0.51781058  0.00088807    -0.04800
C475        C  0.88577025  0.53629558  0.97862607    -0.01910
C476        C  0.85230815  0.53546484  0.97819708     0.03070
C477        C  0.83529802  0.48254548  0.04862429     0.37720
C478        C  0.90275270  0.55570826  0.95562748     0.37710
C479        C  0.83540232  0.55227079  0.95340420     0.36130
C480        C  0.90282839  0.48302027  0.04849238     0.36130
N481        N  0.82195871  0.56552926  0.93351034    -0.38690
N482        N  0.91650489  0.46967529  0.06817017    -0.38690
N483        N  0.91624619  0.57128241  0.93733386    -0.38130
N484        N  0.82181523  0.46882648  0.06835151    -0.38140
C485        C  0.49999730  0.91731012  0.00063537    -0.04800
C486        C  0.48378935  0.90031766  0.02467266    -0.01920
C487        C  0.48378864  0.86685062  0.02455432     0.03070
C488        C  0.50003075  0.85016442  0.00038908    -0.04800
C489        C  0.51616613  0.86723646  0.97629193    -0.01910
C490        C  0.51613000  0.90069374  0.97641595     0.03070
C491        C  0.46808554  0.91728394  0.05021559     0.37720
C492        C  0.53189891  0.85044172  0.95067444     0.37710
C493        C  0.53176425  0.91805546  0.95094348     0.36130
C494        C  0.46800189  0.84964703  0.05000471     0.36130
N495        N  0.54411929  0.93196604  0.93062206    -0.38690
N496        N  0.45542998  0.83595573  0.07033925    -0.38690
N497        N  0.54441848  0.83707692  0.93020489    -0.38130
N498        N  0.45566704  0.93087364  0.07059899    -0.38140
loop_ 
_geom_bond_atom_site_label_1 
_geom_bond_atom_site_label_2 
_geom_bond_distance 
_geom_bond_site_symmetry_2 
_ccdc_geom_bond_type 
N1            N2   1.315   1_556  A
N1            C5   1.358       .  A
N1           Cu9   2.089       .  S
N2            C3   1.330       .  A
N2           Cu8   2.032       .  S
C3            C4   1.379   1_554  A
C3            H6   1.081       .  S
C4            C5   1.396       .  A
C4           C76   1.478       .  S
C5            H7   1.082       .  S
Cu8          N11   2.032       .  S
Cu9          N19   2.097   1_556  S
Cu10         N12   2.092       .  S
Cu10         N18   2.100       .  S
N11          N12   1.316   1_554  A
N11          C15   1.331       .  A
N12          C13   1.358       .  A
C13          C14   1.396   1_556  A
C13          H16   1.082       .  S
C14          C15   1.379       .  A
C14          C28   1.479       .  S
C15          H17   1.081       .  S
N18          N19   1.331   1_556  A
N18          C22   1.346       .  A
N19          C20   1.345       .  A
C20          C21   1.380       .  A
C20          H23   1.082       .  S
C21          C22   1.381   1_554  A
C21         C488   1.485       .  S
C22          H24   1.082       .  S
N25          N26   1.315       .  A
N25          C29   1.358       .  A
N25         Cu33   2.090       .  S
N26          C27   1.331       .  A
N26         Cu32   2.032       .  S
C27          C28   1.379       .  A
C27          H30   1.081       .  S
C28          C29   1.396       .  A
C29          H31   1.082       .  S
Cu32         N35   2.031   1_554  S
Cu33         N43   2.098       .  S
Cu34         N36   2.090       .  S
Cu34         N42   2.099   1_556  S
N35          N36   1.316       .  A
N35          C39   1.330       .  A
N36          C37   1.358       .  A
C37          C38   1.396       .  A
C37          H40   1.082       .  S
C38          C39   1.378       .  A
C38          C52   1.477       .  S
C39          H41   1.081   1_556  S
N42          N43   1.331       .  A
N42          C46   1.346       .  A
N43          C44   1.345       .  A
C44          C45   1.381       .  A
C44          H47   1.082       .  S
C45          C46   1.381       .  A
C45         C471   1.487       .  S
C46          H48   1.082   1_554  S
N49          N50   1.315       .  A
N49          C53   1.357       .  A
N49         Cu57   2.088       .  S
N50          C51   1.330   1_556  A
N50         Cu56   2.030   1_556  S
C51          C52   1.378   1_554  A
C51          H54   1.081       .  S
C52          C53   1.396       .  A
C53          H55   1.082       .  S
Cu56         N59   2.030       .  S
Cu57         N67   2.096       .  S
Cu58         N60   2.092       .  S
Cu58         N66   2.101       .  S
N59          N60   1.315       .  A
N59          C63   1.330   1_554  A
N60          C61   1.358       .  A
C61          C62   1.396       .  A
C61          H64   1.082       .  S
C62          C63   1.378   1_554  A
C62          C86   1.478       .  S
C63          H65   1.081       .  S
N66          N67   1.330   1_554  A
N66          C70   1.345       .  A
N67          C68   1.345       .  A
C68          C69   1.383   1_556  A
C68          H71   1.082       .  S
C69          C70   1.384       .  A
C69         C460   1.493       .  S
C70          H72   1.082       .  S
N73          N74   1.316       .  A
N73          C77   1.358       .  A
N73         Cu81   2.092       .  S
N74          C75   1.330       .  A
N74         Cu80   2.031       .  S
C75          C76   1.378       .  A
C75          H78   1.081   1_556  S
C76          C77   1.397       .  A
C77          H79   1.082       .  S
Cu80         N83   2.032   1_556  S
Cu81         N91   2.101       .  S
Cu82         N84   2.088       .  S
Cu82         N90   2.096       .  S
N83          N84   1.315       .  A
N83          C87   1.331   1_554  A
N84          C85   1.357       .  A
C85          C86   1.396       .  A
C85          H88   1.082       .  S
C86          C87   1.379   1_554  A
C87          H89   1.081       .  S
N90          N91   1.331   1_554  A
N90          C94   1.344       .  A
N91          C92   1.346       .  A
C92          C93   1.383   1_556  A
C92          H95   1.082       .  S
C93          C94   1.381       .  A
C93         C443   1.490       .  S
C94          H96   1.082       .  S
N97          N98   1.316       .  A
N97         C101   1.358       .  A
N97        Cu105   2.093       .  S
N98          C99   1.330       .  A
N98        Cu104   2.029       .  S
C99         C100   1.378       .  A
C99         H102   1.081   1_455  S
C100        C101   1.397       .  A
C100        C124   1.478       .  S
C101        H103   1.082       .  S
Cu104       N107   2.030       .  S
Cu105       N115   2.102       .  S
Cu106       N108   2.090   1_655  S
Cu106       N114   2.098   1_655  S
N107        N108   1.315       .  A
N107        C111   1.330       .  A
N108        C109   1.358       .  A
C109        C110   1.396       .  A
C109        H112   1.082       .  S
C110        C111   1.379       .  A
C110        C182   1.478       .  S
C111        H113   1.081       .  S
N114        N115   1.332       .  A
N114        C118   1.345   1_455  A
N115        C116   1.347       .  A
C116        C117   1.379       .  A
C116        H119   1.082       .  S
C117        C118   1.377   1_455  A
C117        C429   1.479       .  S
C118        H120   1.082       .  S
N121        N122   1.315       .  A
N121        C125   1.357   1_655  A
N121       Cu129   2.085   1_655  S
N122        C123   1.331       .  A
N122       Cu128   2.034       .  S
C123        C124   1.380   1_655  A
C123        H126   1.081       .  S
C124        C125   1.395       .  A
C125        H127   1.082       .  S
Cu128       N131   2.034       .  S
Cu129       N139   2.093       .  S
Cu130       N132   2.094       .  S
Cu130       N138   2.103       .  S
N131        N132   1.316   1_655  A
N131        C135   1.330       .  A
N132        C133   1.358       .  A
C133        C134   1.397       .  A
C133        H136   1.082       .  S
C134        C135   1.379   1_455  A
C134        C148   1.480       .  S
C135        H137   1.081       .  S
N138        N139   1.331       .  A
N138        C142   1.347       .  A
N139        C140   1.344       .  A
C140        C141   1.379       .  A
C140        H143   1.082       .  S
C141        C142   1.383       .  A
C141        C415   1.486       .  S
C142        H144   1.082       .  S
N145        N146   1.316       .  A
N145        C149   1.358       .  A
N145       Cu153   2.093       .  S
N146        C147   1.330       .  A
N146       Cu152   2.032       .  S
C147        C148   1.379       .  A
C147        H150   1.081       .  S
C148        C149   1.397       .  A
C149        H151   1.082       .  S
Cu152       N155   2.032       .  S
Cu153       N163   2.102       .  S
Cu154       N156   2.092       .  S
Cu154       N162   2.101       .  S
N155        N156   1.316   1_455  A
N155        C159   1.331       .  A
N156        C157   1.358       .  A
C157        C158   1.397   1_655  A
C157        H160   1.082       .  S
C158        C159   1.379       .  A
C158        C172   1.479       .  S
C159        H161   1.081       .  S
N162        N163   1.331   1_655  A
N162        C166   1.346       .  A
N163        C164   1.346       .  A
C164        C165   1.382       .  A
C164        H167   1.082       .  S
C165        C166   1.382   1_455  A
C165        C404   1.490       .  S
C166        H168   1.082       .  S
N169        N170   1.315   1_655  A
N169        C173   1.358       .  A
N169       Cu177   2.091       .  S
N170        C171   1.331       .  A
N170       Cu176   2.032       .  S
C171        C172   1.379       .  A
C171        H174   1.081       .  S
C172        C173   1.396   1_455  A
C173        H175   1.082       .  S
Cu176       N179   2.032       .  S
Cu177       N187   2.099       .  S
Cu178       N180   2.091   1_655  S
Cu178       N186   2.100       .  S
N179        N180   1.316       .  A
N179        C183   1.330       .  A
N180        C181   1.358       .  A
C181        C182   1.396       .  A
C181        H184   1.082   1_455  S
C182        C183   1.378       .  A
C183        H185   1.081       .  S
N186        N187   1.331       .  A
N186        C190   1.347       .  A
N187        C188   1.344       .  A
C188        C189   1.382       .  A
C188        H191   1.082       .  S
C189        C190   1.383       .  A
C189        C387   1.490       .  S
C190        H192   1.082       .  S
N193        N194   1.315       .  A
N193        C197   1.357       .  A
N193       Cu201   2.088       .  S
N194        C195   1.330       .  A
N194       Cu200   2.029       .  S
C195        C196   1.378       .  A
C195        H198   1.081       .  S
C196        C197   1.396       .  A
C196        C268   1.477       .  S
C197        H199   1.082       .  S
Cu200       N203   2.029       .  S
Cu201       N211   2.096       .  S
Cu202       N204   2.088       .  S
Cu202       N210   2.097       .  S
N203        N204   1.315       .  A
N203        C207   1.330       .  A
N204        C205   1.357       .  A
C205        C206   1.396       .  A
C205        H208   1.082       .  S
C206        C207   1.378       .  A
C206        C220   1.477       .  S
C207        H209   1.081       .  S
N210        N211   1.329       .  A
N210        C214   1.344       .  A
N211        C212   1.344       .  A
C212        C213   1.385       .  A
C212        H215   1.081       .  S
C213        C214   1.386       .  A
C213        C376   1.498       .  S
C214        H216   1.081       .  S
N217        N218   1.316       .  A
N217        C221   1.357       .  A
N217       Cu225   2.089       .  S
N218        C219   1.330       .  A
N218       Cu224   2.030       .  S
C219        C220   1.378       .  A
C219        H222   1.081       .  S
C220        C221   1.396       .  A
C221        H223   1.082       .  S
Cu224       N227   2.031       .  S
Cu225       N235   2.097       .  S
Cu226       N228   2.091       .  S
Cu226       N234   2.099       .  S
N227        N228   1.315       .  A
N227        C231   1.330       .  A
N228        C229   1.358       .  A
C229        C230   1.396       .  A
C229        H232   1.082       .  S
C230        C231   1.379       .  A
C230        C254   1.478       .  S
C231        H233   1.081       .  S
N234        N235   1.332       .  A
N234        C238   1.345       .  A
N235        C236   1.346       .  A
C236        C237   1.379       .  A
C236        H239   1.082       .  S
C237        C238   1.378       .  A
C237        C359   1.480       .  S
C238        H240   1.082       .  S
N241        N242   1.316       .  A
N241        C245   1.358       .  A
N241       Cu249   2.089       .  S
N242        C243   1.330       .  A
N242       Cu248   2.032       .  S
C243        C244   1.378       .  A
C243        H246   1.081       .  S
C244        C245   1.396       .  A
C244        C278   1.478       .  S
C245        H247   1.082       .  S
Cu248       N251   2.032       .  S
Cu249       N259   2.098       .  S
Cu250       N252   2.090       .  S
Cu250       N258   2.099       .  S
N251        N252   1.315       .  A
N251        C255   1.330       .  A
N252        C253   1.358       .  A
C253        C254   1.396       .  A
C253        H256   1.082       .  S
C254        C255   1.379       .  A
C255        H257   1.081       .  S
N258        N259   1.332       .  A
N258        C262   1.345       .  A
N259        C260   1.345       .  A
C260        C261   1.380       .  A
C260        H263   1.082       .  S
C261        C262   1.380       .  A
C261        C345   1.484       .  S
C262        H264   1.082       .  S
N265        N266   1.316       .  A
N265        C269   1.357       .  A
N265       Cu273   2.088       .  S
N266        C267   1.330       .  A
N266       Cu272   2.030       .  S
C267        C268   1.378       .  A
C267        H270   1.081       .  S
C268        C269   1.396       .  A
C269        H271   1.082       .  S
Cu272       N275   2.030       .  S
Cu273       N283   2.097       .  S
Cu274       N276   2.089       .  S
Cu274       N282   2.098       .  S
N275        N276   1.315       .  A
N275        C279   1.330       .  A
N276        C277   1.358       .  A
C277        C278   1.396       .  A
C277        H280   1.082       .  S
C278        C279   1.379       .  A
C279        H281   1.081       .  S
N282        N283   1.330       .  A
N282        C286   1.343       .  A
N283        C284   1.346       .  A
C284        C285   1.383       .  A
C284        H287   1.082       .  S
C285        C286   1.383       .  A
C285        C331   1.493       .  S
C286        H288   1.082       .  S
O289       Cu297   2.020   1_565  S
O289        C299   1.281       .  A
O290       Cu297   2.028       .  S
O290        C300   1.281   1_455  A
O291       Cu297   1.996       .  S
O291        C301   1.275       .  A
O292       Cu297   2.004   1_655  S
O292        C302   1.275       .  A
O293       Cu298   2.024       .  S
O293        C302   1.280       .  A
O294       Cu298   2.021   1_455  S
O294        C301   1.281       .  A
O295       Cu298   2.001       .  S
O295        C300   1.276       .  A
O296       Cu298   1.994   1_465  S
O296        C299   1.275       .  A
Cu297      Cu298   2.372   1_455  S
C299        C418   1.485       .  S
C300        C390   1.493       .  S
C301        C334   1.496       .  S
C302        C362   1.480       .  S
O303       Cu311   2.008   1_565  S
O303        C313   1.278       .  A
O304       Cu311   1.999       .  S
O304        C314   1.277       .  A
O305       Cu311   2.009   1_556  S
O305        C315   1.278       .  A
O306       Cu311   2.002       .  S
O306        C316   1.277       .  A
O307       Cu312   2.006       .  S
O307        C316   1.277       .  A
O308       Cu312   2.001   1_556  S
O308        C315   1.277       .  A
O309       Cu312   2.011       .  S
O309        C314   1.279       .  A
O310       Cu312   2.001   1_565  S
O310        C313   1.277       .  A
Cu311      Cu312   2.371       .  S
C313        C485   1.480       .  S
C314        C457   1.490       .  S
C315        C373   1.502       .  S
C316        C348   1.479       .  S
O317       Cu325   2.011       .  S
O317        C327   1.277   1_655  A
O318       Cu325   2.006   1_554  S
O318        C328   1.277   1_655  A
O319       Cu325   2.007   1_554  S
O319        C329   1.278   1_554  A
O320       Cu325   2.010   1_455  S
O320        C330   1.278       .  A
O321       Cu326   2.002       .  S
O321        C330   1.278       .  A
O322       Cu326   2.005   1_655  S
O322        C329   1.277       .  A
O323       Cu326   2.008   1_554  S
O323        C328   1.278       .  A
O324       Cu326   2.009       .  S
O324        C327   1.277       .  A
Cu325      Cu326   2.375   1_655  S
C327        C432   1.478       .  S
C328        C401   1.484       .  S
C329        C474   1.484   1_556  S
C330        C446   1.487   1_556  S
C331        C332   1.414       .  A
C331        C336   1.416   1_545  A
C332        C333   1.408       .  A
C332        C337   1.452       .  S
C333        C334   1.417       .  A
C333        C340   1.449       .  S
C334        C335   1.417   1_545  A
C335        C336   1.414       .  A
C335        C338   1.452       .  S
C336        C339   1.451       .  S
C337        N344   1.157       .  T
C338        N343   1.157       .  T
C339        N341   1.157       .  T
C340        N342   1.157       .  T
C345        C346   1.414       .  A
C345        C350   1.414   1_545  A
C346        C347   1.410       .  A
C346        C351   1.451       .  S
C347        C348   1.412       .  A
C347        C354   1.452       .  S
C348        C349   1.412   1_545  A
C349        C350   1.410       .  A
C349        C352   1.452       .  S
C350        C353   1.451       .  S
C351        N358   1.157       .  T
C352        N357   1.157       .  T
C353        N355   1.157       .  T
C354        N356   1.157       .  T
C359        C360   1.411       .  A
C359        C364   1.410   1_545  A
C360        C361   1.412       .  A
C360        C365   1.450       .  S
C361        C362   1.412       .  A
C361        C368   1.450       .  S
C362        C363   1.410   1_545  A
C363        C364   1.409       .  A
C363        C366   1.446       .  S
C364        C367   1.451       .  S
C365        N372   1.157       .  T
C366        N371   1.156       .  T
C367        N369   1.157       .  T
C368        N370   1.157       .  T
C373        C374   1.421       .  A
C373        C378   1.420       .  A
C374        C375   1.412       .  A
C374        C379   1.453       .  S
C375        C376   1.416       .  A
C375        C382   1.453       .  S
C376        C377   1.417       .  A
C377        C378   1.412       .  A
C377        C380   1.452   1_545  S
C378        C381   1.453   1_545  S
C379        N386   1.158       .  T
C380        N385   1.158       .  T
C381        N383   1.158       .  T
C382        N384   1.158       .  T
C387        C388   1.414       .  A
C387        C392   1.413   1_655  A
C388        C389   1.413       .  A
C388        C393   1.451       .  S
C389        C390   1.418       .  A
C389        C396   1.452       .  S
C390        C391   1.413   1_655  A
C391        C392   1.411       .  A
C391        C394   1.446       .  S
C392        C395   1.452       .  S
C393        N400   1.157       .  T
C394        N399   1.155       .  T
C395        N397   1.157       .  T
C396        N398   1.157       .  T
C401        C402   1.413       .  A
C401        C406   1.413   1_455  A
C402        C403   1.411       .  A
C402        C407   1.452       .  S
C403        C404   1.415       .  A
C403        C410   1.451       .  S
C404        C405   1.415   1_455  A
C405        C406   1.411       .  A
C405        C408   1.451       .  S
C406        C409   1.452       .  S
C407        N414   1.157       .  T
C408        N413   1.157       .  T
C409        N411   1.157       .  T
C410        N412   1.157       .  T
C415        C416   1.414   1_455  A
C415        C420   1.414       .  A
C416        C417   1.409       .  A
C416        C421   1.451       .  S
C417        C418   1.413   1_655  A
C417        C424   1.451       .  S
C418        C419   1.413       .  A
C419        C420   1.411       .  A
C419        C422   1.452       .  S
C420        C423   1.451       .  S
C421        N428   1.157       .  T
C422        N427   1.157       .  T
C423        N425   1.157       .  T
C424        N426   1.158       .  T
C429        C430   1.411   1_455  A
C429        C434   1.410       .  A
C430        C431   1.410       .  A
C430        C435   1.451       .  S
C431        C432   1.411   1_655  A
C431        C438   1.450       .  S
C432        C433   1.411       .  A
C433        C434   1.410       .  A
C433        C436   1.450       .  S
C434        C437   1.451       .  S
C435        N442   1.157       .  T
C436        N441   1.157       .  T
C437        N439   1.157       .  T
C438        N440   1.157       .  T
C443        C444   1.415   1_554  A
C443        C448   1.414       .  A
C444        C445   1.411       .  A
C444        C449   1.451       .  S
C445        C446   1.414   1_556  A
C445        C452   1.452       .  S
C446        C447   1.415       .  A
C447        C448   1.410       .  A
C447        C450   1.453       .  S
C448        C451   1.451       .  S
C449        N456   1.157       .  T
C450        N455   1.157       .  T
C451        N453   1.157       .  T
C452        N454   1.157       .  T
C457        C458   1.415       .  A
C457        C462   1.416   1_554  A
C458        C459   1.412       .  A
C458        C463   1.452       .  S
C459        C460   1.416       .  A
C459        C466   1.452       .  S
C460        C461   1.415   1_554  A
C461        C462   1.411       .  A
C461        C464   1.452       .  S
C462        C465   1.453       .  S
C463        N470   1.157       .  T
C464        N469   1.157       .  T
C465        N467   1.157       .  T
C466        N468   1.157       .  T
C471        C472   1.414       .  A
C471        C476   1.414   1_554  A
C472        C473   1.410       .  A
C472        C477   1.451       .  S
C473        C474   1.413       .  A
C473        C480   1.452       .  S
C474        C475   1.413   1_554  A
C475        C476   1.411       .  A
C475        C478   1.452       .  S
C476        C479   1.451       .  S
C477        N484   1.157       .  T
C478        N483   1.157       .  T
C479        N481   1.157       .  T
C480        N482   1.157       .  T
C485        C486   1.412       .  A
C485        C490   1.412   1_554  A
C486        C487   1.410       .  A
C486        C491   1.452       .  S
C487        C488   1.414       .  A
C487        C494   1.451       .  S
C488        C489   1.414   1_554  A
C489        C490   1.410       .  A
C489        C492   1.451       .  S
C490        C493   1.452       .  S
C491        N498   1.157       .  T
C492        N497   1.157       .  T
C493        N495   1.157       .  T
C494        N496   1.157       .  T
