geometry optimzed in LAMMPS
_audit_creation_date              2020-12-01 
_audit_creation_method            'lammps2cif' 
_symmetry_space_group_name_H-M    'P1' 
_symmetry_Int_Tables_number       1 
_symmetry_cell_setting            triclinic 
loop_ 
_symmetry_equiv_pos_as_xyz 
  x,y,z 
_cell_length_a                    29.64141059 
_cell_length_b                    28.696708820699655 
_cell_length_c                    30.730161661701928 
_cell_angle_alpha                 88.49729884165514 
_cell_angle_beta                  122.24706334162121 
_cell_angle_gamma                 88.76103151524464 
loop_ 
_atom_site_label 
_atom_site_type_symbol 
_atom_site_fract_x 
_atom_site_fract_y 
_atom_site_fract_z 
_atom_site_charge 
C1          C  0.06002931  0.83705363  0.22582163     0.86100
C2          C  0.08130652  0.78880609  0.22182256    -0.54100
C3          C  0.10809913  0.78911295  0.19667381     0.09000
C4          C  0.11227716  0.83881440  0.17919168     0.20000
C5          C  0.10913280  0.86695981  0.25148116    -0.54800
C6          C  0.13825260  0.86698556  0.22870575     0.09100
C7          C  0.02651948  0.85564155  0.16969401    -0.54400
C8          C  0.05420851  0.85856363  0.14596602     0.09700
H9          H  0.07388598  0.75679451  0.23584342     0.14200
H10         H  0.13245627  0.83922726  0.15777081     0.00000
H11         H  0.12078170  0.88471840  0.28649974     0.14500
H12         H  0.98515933  0.86797439  0.15100796     0.14300
C13         C  0.18157233  0.58074910  0.06663537     0.86100
C14         C  0.12334582  0.56622271  0.03428602    -0.54100
C15         C  0.09891917  0.56013040  0.06086376     0.09000
C16         C  0.13564739  0.56984545  0.11867810     0.20000
C17         C  0.17633470  0.62576037  0.09063992    -0.54800
C18         C  0.15347070  0.62038746  0.11966580     0.09100
C19         C  0.21042659  0.54490865  0.11208249    -0.54400
C20         C  0.18681400  0.53925886  0.13943758     0.09700
H21         H  0.10195341  0.56519812  0.99263439     0.14200
H22         H  0.11691441  0.56174436  0.14030912     0.00000
H23         H  0.18564366  0.65955921  0.08192770     0.14500
H24         H  0.24703328  0.52591070  0.12204946     0.14300
C25         C  0.44432472  0.83496896  0.33444717     0.86100
C26         C  0.42687911  0.78680156  0.34142174    -0.54100
C27         C  0.40324942  0.78694182  0.36904707     0.09000
C28         C  0.39755092  0.83523662  0.38611582     0.20000
C29         C  0.39162883  0.86527044  0.30886981    -0.54800
C30         C  0.36581247  0.86534914  0.33534490     0.09100
C31         C  0.47847171  0.85318228  0.38836552    -0.54400
C32         C  0.45383305  0.85471272  0.41507710     0.09700
H33         H  0.43066972  0.75553353  0.32428729     0.14200
H34         H  0.38108533  0.83184361  0.41056473     0.00000
H35         H  0.37496506  0.88180915  0.27119257     0.14500
H36         H  0.51686371  0.86828017  0.40191028     0.14300
C37         C  0.28047078  0.57322379  0.44140998     0.86100
C38         C  0.33827199  0.55362655  0.47612213    -0.54100
C39         C  0.36736749  0.55369989  0.45355345     0.09000
C40         C  0.33488226  0.57078619  0.39664339     0.20000
C41         C  0.28570315  0.62138536  0.42111248    -0.54800
C42         C  0.31455098  0.62023135  0.39816827     0.09100
C43         C  0.25542784  0.54434929  0.39287494    -0.54400
C44         C  0.28443934  0.54172969  0.37024489     0.09700
H45         H  0.35611232  0.54468125  0.01680632     0.14200
H46         H  0.35813758  0.56982268  0.37784938     0.00000
H47         H  0.27084903  0.65391670  0.42714045     0.14500
H48         H  0.21732983  0.52822447  0.37633374     0.14300
C49         C  0.06392476  0.06218656  0.21589864     0.86100
C50         C  0.11520551  0.03022130  0.23967501    -0.54100
C51         C  0.14106308  0.03103515  0.21331451     0.09000
C52         C  0.10850486  0.06057902  0.16231523     0.20000
C53         C  0.08026117  0.11017951  0.20706298    -0.54800
C54         C  0.10295739  0.10932297  0.17848501     0.09100
C55         C  0.02874376  0.04310593  0.16199860    -0.54400
C56         C  0.05242424  0.04108862  0.13446527     0.09700
H57         H  0.12905399  0.00881665  0.27424059     0.14200
H58         H  0.12435613  0.06267256  0.13738880     0.00000
H59         H  0.07424392  0.14203122  0.22198354     0.14500
H60         H  0.99070397  0.02764137  0.14884141     0.14300
C61         C  0.20457771  0.32217723  0.08003890     0.86100
C62         C  0.20484503  0.27325636  0.10223610    -0.54100
C63         C  0.18199382  0.27248460  0.13082787     0.09000
C64         C  0.16116807  0.32068123  0.13508373     0.20000
C65         C  0.14532696  0.33899578  0.05045237    -0.54800
C66         C  0.12157780  0.33745337  0.07862210     0.09100
C67         C  0.23290175  0.35128835  0.12831586    -0.54400
C68         C  0.20894549  0.35208917  0.15564973     0.09700
H69         H  0.21973360  0.24156139  0.09472626     0.14200
H70         H  0.14510165  0.32082182  0.16023934     0.00000
H71         H  0.12358026  0.34798312  0.00948223     0.14500
H72         H  0.26885949  0.36993975  0.14037612     0.14300
C73         C  0.45008807  0.06166321  0.32629615     0.86100
C74         C  0.39933676  0.03318602  0.29906280    -0.54100
C75         C  0.36953082  0.03378179  0.32128085     0.09000
C76         C  0.39636287  0.06066300  0.37160883     0.20000
C77         C  0.43148540  0.11004836  0.33195462    -0.54800
C78         C  0.40370121  0.10994812  0.35585175     0.09100
C79         C  0.48117993  0.03918283  0.38098891    -0.54400
C80         C  0.45321913  0.03807168  0.40461475     0.09700
H81         H  0.38783653  0.01490308  0.26440372     0.14200
H82         H  0.37507300  0.06177974  0.39207889     0.00000
H83         H  0.44049530  0.14193817  0.31875160     0.14500
H84         H  0.51960563  0.02079346  0.39778751     0.14300
C85         C  0.30655688  0.32334058  0.45795852     0.86100
C86         C  0.32165454  0.27650609  0.44443768    -0.54100
C87         C  0.34784889  0.28036765  0.41890654     0.09000
C88         C  0.35882687  0.33122925  0.41124447     0.20000
C89         C  0.36087567  0.34600864  0.48975020    -0.54800
C90         C  0.38907011  0.34943753  0.46623200     0.09100
C91         C  0.27657158  0.35243702  0.40733896    -0.54400
C92         C  0.30367233  0.35717819  0.38302886     0.09700
H93         H  0.31577759  0.24269769  0.45660623     0.14200
H94         H  0.37984931  0.33493011  0.39055035     0.00000
H95         H  0.37800384  0.35430856  0.02975956     0.14500
H96         H  0.23773033  0.36942606  0.39298890     0.14300
O97         O  0.22359462  0.49370617  0.30300397    -0.72100
O98         O  0.19074775  0.39794136  0.20849339    -0.72400
O99         O  0.23384861  0.40118943  0.31082150    -0.72200
O100        O  0.17967480  0.49125805  0.19990063    -0.72200
O101        O  0.25846837  0.49503775  0.21150503    -0.72200
O102        O  0.31283091  0.40420218  0.32279145    -0.72200
O103        O  0.26943032  0.40241290  0.21992441    -0.72200
O104        O  0.30265332  0.49782539  0.31535625    -0.72300
V105        V  0.20852002  0.44616140  0.25571305     1.35200
V106        V  0.28436479  0.44988323  0.26720005     1.35200
C107        C  0.26939628  0.51065839  0.32698190     0.77100
C108        C  0.22408682  0.38472787  0.19718862     0.77100
C109        C  0.28261984  0.38816913  0.33648240     0.77000
C110        C  0.20935746  0.50739723  0.18569124     0.77000
O111        O  0.44143042  0.90219422  0.47060155    -0.72100
O112        O  0.48551017  0.99680731  0.06772383    -0.72400
O113        O  0.44107597  0.99563348  0.46510442    -0.72200
O114        O  0.48611264  0.90404559  0.07340788    -0.72200
O115        O  0.06468710  0.89996874  0.08426343    -0.72200
O116        O  0.01999375  0.99179334  0.47678026    -0.72200
O117        O  0.06449976  0.99319184  0.07926206    -0.72200
O118        O  0.02029448  0.89907158  0.48187392    -0.72300
V119        V  0.46499722  0.94958561  0.01936287     1.35200
V120        V  0.04083672  0.94607426  0.03035936     1.35200
C121        C  0.47298208  0.88553372  0.45863533     0.77100
C122        C  0.03293517  0.01008609  0.09107611     0.77100
C123        C  0.47243544  0.00824082  0.45151296     0.77000
C124        C  0.03371489  0.88762006  0.09838912     0.77000
C125        C  0.36267618  0.23836064  0.40058025    -0.00500
C126        C  0.32568648  0.20300848  0.37961111    -0.12400
C127        C  0.33716050  0.16158448  0.36369437     0.01700
C128        C  0.38738641  0.15399716  0.36956605    -0.00600
C129        C  0.42395430  0.18962693  0.38945851    -0.12300
C130        C  0.41201037  0.23159285  0.40413471     0.01600
H131        H  0.28677842  0.20816143  0.37456454     0.14600
H132        H  0.46274855  0.18445712  0.39426551     0.14600
C133        C  0.45241748  0.26566568  0.42303311     0.36200
C134        C  0.29479041  0.12956879  0.33875221     0.36100
N135        N  0.48667554  0.29113625  0.43660235    -0.44100
N136        N  0.25860859  0.10602806  0.31849308    -0.44100
C137        C  0.06209847  0.34534388  0.05438726    -0.00500
C138        C  0.03304493  0.37479445  0.00953499    -0.12400
C139        C  0.47688205  0.37825516  0.48076852     0.01700
C140        C  0.44823186  0.35305191  0.49749936    -0.00600
C141        C  0.47683546  0.32596893  0.04352931    -0.12300
C142        C  0.03244210  0.32151768  0.07167905     0.01600
H143        H  0.05407508  0.39376065  0.99539557     0.14600
H144        H  0.45530920  0.30553958  0.05635248     0.14600
C145        C  0.05525689  0.28996050  0.11623667     0.36200
C146        C  0.44985175  0.40469509  0.43226536     0.36100
N147        N  0.07044493  0.26492686  0.15190901    -0.44100
N148        N  0.42853615  0.42502786  0.39281739    -0.44100
C149        C  0.27563410  0.32220370  0.48545171    -0.00500
C150        C  0.27524793  0.36253410  0.01037280    -0.12400
C151        C  0.25065924  0.36438455  0.03857154     0.01700
C152        C  0.22803411  0.32398964  0.04567251    -0.00600
C153        C  0.22165545  0.28616148  0.01475411    -0.12300
C154        C  0.24362718  0.28536834  0.48397197     0.01600
H155        H  0.29396530  0.39344357  0.00730427     0.14600
H156        H  0.19762945  0.25749032  0.01297133     0.14600
C157        C  0.22743709  0.24869837  0.44790232     0.36200
C158        C  0.24739977  0.40918945  0.05716216     0.36100
N159        N  0.21370946  0.21927214  0.41889985    -0.44100
N160        N  0.24532816  0.44510840  0.07237786    -0.44100
C161        C  0.31292357  0.01827539  0.29375791    -0.00500
C162        C  0.28241694  0.02146787  0.23963886    -0.12400
C163        C  0.22688765  0.01855172  0.21158080     0.01700
C164        C  0.19920759  0.01524699  0.23760895    -0.00600
C165        C  0.23059627  0.00407404  0.29103729    -0.12300
C166        C  0.28644687  0.00530962  0.31897235     0.01600
H167        H  0.30118508  0.02878361  0.21831484     0.14600
H168        H  0.21231922  0.99737176  0.31281913     0.14600
C169        C  0.31374343  0.99587183  0.37372201     0.36200
C170        C  0.20142885  0.01757246  0.15647069     0.36100
N171        N  0.33296176  0.98874354  0.41747599    -0.44100
N172        N  0.18242734  0.01669155  0.11239537    -0.44100
C173        C  0.48020472  0.06451690  0.29828430    -0.00500
C174        C  0.03648078  0.06077994  0.32595511    -0.12400
C175        C  0.06457244  0.06235177  0.30098331     0.01700
C176        C  0.03646896  0.06491566  0.24643977    -0.00600
C177        C  0.48105192  0.07538826  0.21964294    -0.12300
C178        C  0.45321307  0.07600914  0.24480888     0.01600
H179        H  0.05949445  0.05906514  0.36757203     0.14600
H180        H  0.45906464  0.08397344  0.17864113     0.14600
C181        C  0.39722753  0.09025255  0.21481415     0.36200
C182        C  0.12191646  0.06493219  0.33290925     0.36100
N183        N  0.35247609  0.10193964  0.19093992    -0.44100
N184        N  0.16783184  0.06714788  0.35875163    -0.44100
C185        C  0.12355204  0.15099368  0.16614912    -0.00500
C186        C  0.16034030  0.17833217  0.20626436    -0.12400
C187        C  0.18188718  0.21705474  0.19600724     0.01700
C188        C  0.16669255  0.22863388  0.14498870    -0.00600
C189        C  0.13083152  0.20081398  0.10512370    -0.12300
C190        C  0.10892023  0.16248748  0.11514309     0.01600
H191        H  0.17224280  0.16939282  0.24558278     0.14600
H192        H  0.11805002  0.21037745  0.06565747     0.14600
C193        C  0.06927527  0.13728070  0.07195296     0.36200
C194        C  0.21905784  0.24467725  0.23805296     0.36100
N195        N  0.53750859  0.11728471  0.03717332    -0.44100
N196        N  0.24882583  0.26708355  0.27148247    -0.44100
C197        C  0.38043692  0.74475328  0.37718615    -0.00500
C198        C  0.32480582  0.74256326  0.35288284    -0.12400
C199        C  0.30193668  0.70216426  0.35823152     0.01700
C200        C  0.33515990  0.66304725  0.38773264    -0.00600
C201        C  0.39061520  0.66559943  0.41156817    -0.12300
C202        C  0.41342566  0.70622850  0.40762650     0.01600
H203        H  0.29926740  0.77224592  0.32935700     0.14600
H204        H  0.41664661  0.63631885  0.43504303     0.14600
C205        C  0.47078827  0.70862772  0.43832085     0.36200
C206        C  0.24453168  0.70125802  0.33202729     0.36100
N207        N  0.01673152  0.71032450  0.46420310    -0.44100
N208        N  0.19851452  0.70066219  0.31104160    -0.44100
C209        C  0.42696729  0.55179803  0.48417927    -0.00500
C210        C  0.45472644  0.52430771  0.46814281    -0.12400
C211        C  0.01065574  0.52508921  0.99306671     0.01700
C212        C  0.03984320  0.55489184  0.03434101    -0.00600
C213        C  0.01141675  0.58386498  0.04826101    -0.12300
C214        C  0.45615679  0.58201438  0.02488312     0.01600
H215        H  0.43233104  0.50295605  0.43534842     0.14600
H216        H  0.03199305  0.61046982  0.07526100     0.14600
C217        C  0.43023279  0.61472389  0.04050925     0.36200
C218        C  0.03666687  0.49655560  0.97411531     0.36100
N219        N  0.40974008  0.64098700  0.05323987    -0.44100
N220        N  0.05777045  0.47468433  0.95840777    -0.44100
C221        C  0.25275607  0.57510041  0.47199259    -0.00500
C222        C  0.26556661  0.61118849  0.00671566    -0.12400
C223        C  0.24505460  0.61400524  0.03867218     0.01700
C224        C  0.20798923  0.58138700  0.03482046    -0.00600
C225        C  0.19956202  0.54294731  0.00399819    -0.12300
C226        C  0.22264386  0.53855785  0.47461074     0.01600
H227        H  0.29417788  0.63641455  0.01096468     0.14600
H228        H  0.17593166  0.51475147  0.00428446     0.14600
C229        C  0.21813858  0.49404701  0.45208718     0.36200
C230        C  0.26809060  0.64738800  0.07847404     0.36100
N231        N  0.21415823  0.45808157  0.43442482    -0.44100
N232        N  0.28766755  0.67396326  0.11059452    -0.44100
C233        C  0.30832759  0.88273416  0.31162551    -0.00500
C234        C  0.27686307  0.89528181  0.25851696    -0.12400
C235        C  0.22100210  0.89520430  0.23104343     0.01700
C236        C  0.19486359  0.88210072  0.25641429    -0.00600
C237        C  0.22564166  0.87839821  0.31054996    -0.12300
C238        C  0.28121039  0.88046625  0.33818867     0.01600
H239        H  0.29483782  0.90263647  0.23661641     0.14600
H240        H  0.20711987  0.87134979  0.33216112     0.14600
C241        C  0.30743117  0.88196277  0.39335006     0.36200
C242        C  0.19293642  0.90593668  0.17644324     0.36100
N243        N  0.32700160  0.88328242  0.43746896    -0.44100
N244        N  0.17255584  0.91379023  0.13265358    -0.44100
C245        C  0.03062576  0.83767599  0.25456982    -0.00500
C246        C  0.04137686  0.80190224  0.29145619    -0.12400
C247        C  0.01496795  0.80076467  0.31790895     0.01700
C248        C  0.47461369  0.83513690  0.30666263    -0.00600
C249        C  0.46906966  0.87399478  0.27498627    -0.12300
C250        C  0.49725483  0.87605730  0.25020571     0.01600
H251        H  0.07259474  0.77553577  0.30218374     0.14600
H252        H  0.44472037  0.90431782  0.27122680     0.14600
C253        C  0.49299753  0.91933668  0.22307531     0.36200
C254        C  0.03304847  0.76507055  0.35840474     0.36100
N255        N  0.48917150  0.95421575  0.20143807    -0.44100
N256        N  0.04856124  0.73613993  0.39067091    -0.44100
C257        C  0.12471388  0.74494340  0.18235053    -0.00500
C258        C  0.09573555  0.70482589  0.17562770    -0.12400
C259        C  0.10830038  0.66252763  0.16220117     0.01700
C260        C  0.14574447  0.66065860  0.14661893    -0.00600
C261        C  0.17695666  0.70004571  0.15638509    -0.12300
C262        C  0.16812687  0.74094560  0.17535865     0.01600
H263        H  0.06281856  0.70567038  0.18146227     0.14600
H264        H  0.21019144  0.69872685  0.15097906     0.14600
C265        C  0.20721732  0.77594926  0.19016456     0.36200
C266        C  0.08423193  0.62265880  0.16986619     0.36100
N267        N  0.24070670  0.80190229  0.20170999    -0.44100
N268        N  0.06427960  0.59188172  0.17739205    -0.44100
C269        C  0.06003149  0.83705105  0.72582521     0.86100
C270        C  0.08130812  0.78880350  0.72182511    -0.54100
C271        C  0.10810097  0.78911105  0.69667660     0.09000
C272        C  0.11227975  0.83881268  0.67919561     0.20000
C273        C  0.10913520  0.86695654  0.75148539    -0.54800
C274        C  0.13825511  0.86698306  0.72871039     0.09100
C275        C  0.02652200  0.85564007  0.66969788    -0.54400
C276        C  0.05421124  0.85856236  0.64597005     0.09700
H277        H  0.07388706  0.75679215  0.73584423     0.14200
H278        H  0.13245915  0.83922548  0.65777519     0.00000
H279        H  0.12078462  0.88471559  0.78650615     0.14500
H280        H  0.98516255  0.86797345  0.65101241     0.14300
C281        C  0.18157327  0.58075013  0.56663454     0.86100
C282        C  0.12334726  0.56622290  0.53428492    -0.54100
C283        C  0.09892005  0.56013019  0.56086182     0.09000
C284        C  0.13564739  0.56984555  0.61867639     0.20000
C285        C  0.17633465  0.62576125  0.59063889    -0.54800
C286        C  0.15347011  0.62038775  0.61966416     0.09100
C287        C  0.21042780  0.54490982  0.61208210    -0.54400
C288        C  0.18681457  0.53925969  0.63943662     0.09700
H289        H  0.10195439  0.56519773  0.49263148     0.14200
H290        H  0.11691452  0.56174438  0.64030692     0.00000
H291        H  0.18564374  0.65956060  0.58192748     0.14500
H292        H  0.24703414  0.52591278  0.62204943     0.14300
C293        C  0.44432491  0.83497017  0.83444866     0.86100
C294        C  0.42687763  0.78680319  0.84142199    -0.54100
C295        C  0.40324848  0.78694355  0.86904781     0.09000
C296        C  0.39755222  0.83523818  0.88611840     0.20000
C297        C  0.39162971  0.86527327  0.80887233    -0.54800
C298        C  0.36581414  0.86535171  0.83534847     0.09100
C299        C  0.47847306  0.85318219  0.88836742    -0.54400
C300        C  0.45383500  0.85471314  0.91507949     0.09700
H301        H  0.43066702  0.75553522  0.82428652     0.14200
H302        H  0.38108738  0.83184520  0.91056766     0.00000
H303        H  0.37496726  0.88181118  0.77119816     0.14500
H304        H  0.51686557  0.86827984  0.90191198     0.14300
C305        C  0.28046822  0.57322494  0.94140912     0.86100
C306        C  0.33826977  0.55362884  0.97612149    -0.54100
C307        C  0.36736566  0.55370302  0.95355342     0.09000
C308        C  0.33488045  0.57078897  0.89664316     0.20000
C309        C  0.28569960  0.62138688  0.92111140    -0.54800
C310        C  0.31454784  0.62023370  0.89816761     0.09100
C311        C  0.25542654  0.54435023  0.89287426    -0.54400
C312        C  0.28443826  0.54173150  0.87024447     0.09700
H313        H  0.35611427  0.54467977  0.51680582     0.14200
H314        H  0.35813591  0.56982623  0.87784953     0.00000
H315        H  0.27084471  0.65391825  0.92713951     0.14500
H316        H  0.21732823  0.52822454  0.87633243     0.14300
C317        C  0.06392564  0.06218902  0.71589945     0.86100
C318        C  0.11520678  0.03022418  0.73967669    -0.54100
C319        C  0.14106388  0.03103685  0.71331572     0.09000
C320        C  0.10850516  0.06057957  0.66231579     0.20000
C321        C  0.08026136  0.11018160  0.70706215    -0.54800
C322        C  0.10295752  0.10932404  0.67848421     0.09100
C323        C  0.02874472  0.04310687  0.66200027    -0.54400
C324        C  0.05242485  0.04108873  0.63446679     0.09700
H325        H  0.12905597  0.00882048  0.77424332     0.14200
H326        H  0.12435642  0.06267219  0.63738898     0.00000
H327        H  0.07424419  0.14203379  0.72198212     0.14500
H328        H  0.99070486  0.02764178  0.64884387     0.14300
C329        C  0.20457980  0.32217750  0.58003995     0.86100
C330        C  0.20484774  0.27325669  0.60223774    -0.54100
C331        C  0.18199617  0.27248510  0.63082926     0.09000
C332        C  0.16116968  0.32068165  0.63508437     0.20000
C333        C  0.14532886  0.33899528  0.55045307    -0.54800
C334        C  0.12157931  0.33745299  0.57862240     0.09100
C335        C  0.23290320  0.35128901  0.62831659    -0.54400
C336        C  0.20894680  0.35209008  0.65565022     0.09700
H337        H  0.21973623  0.24156263  0.59472836     0.14200
H338        H  0.14510313  0.32082229  0.66023985     0.00000
H339        H  0.12358170  0.34798221  0.50948187     0.14500
H340        H  0.26886191  0.36994061  0.64037752     0.14300
C341        C  0.45008829  0.06166651  0.82629567     0.86100
C342        C  0.39933654  0.03318989  0.79906171    -0.54100
C343        C  0.36953086  0.03378532  0.82128018     0.09000
C344        C  0.39636330  0.06066587  0.87160851     0.20000
C345        C  0.43148629  0.11005167  0.83195490    -0.54800
C346        C  0.40370200  0.10995107  0.85585200     0.09100
C347        C  0.48118002  0.03918534  0.88098810    -0.54400
C348        C  0.45321934  0.03807405  0.90461411     0.09700
H349        H  0.38783623  0.01490787  0.76440290     0.14200
H350        H  0.37507324  0.06178251  0.89207867     0.00000
H351        H  0.44049621  0.14194103  0.81875243     0.14500
H352        H  0.51960521  0.02079587  0.89778631     0.14300
C353        C  0.30655570  0.32334218  0.95795836     0.86100
C354        C  0.32165318  0.27650810  0.94443683    -0.54100
C355        C  0.34784794  0.28036975  0.91890631     0.09000
C356        C  0.35882662  0.33123144  0.91124525     0.20000
C357        C  0.36087472  0.34600973  0.98975088    -0.54800
C358        C  0.38906964  0.34943889  0.96623322     0.09100
C359        C  0.27657112  0.35243944  0.90733917    -0.54400
C360        C  0.30367231  0.35718075  0.88302953     0.09700
H361        H  0.31577588  0.24269813  0.95660544     0.14200
H362        H  0.37984932  0.33493260  0.89055164     0.00000
H363        H  0.37800486  0.35430803  0.52975834     0.14500
H364        H  0.23773001  0.36942848  0.89298894     0.14300
O365        O  0.22359424  0.49370818  0.80300293    -0.72100
O366        O  0.19074855  0.39794254  0.70849346    -0.72400
O367        O  0.23384874  0.40119157  0.81082151    -0.72200
O368        O  0.17967521  0.49125919  0.69989975    -0.72200
O369        O  0.25846906  0.49503923  0.71150488    -0.72200
O370        O  0.31283120  0.40420417  0.82279184    -0.72200
O371        O  0.26943120  0.40241435  0.71992475    -0.72200
O372        O  0.30265333  0.49782737  0.81535617    -0.72300
V373        V  0.20852029  0.44616303  0.75571260     1.35200
V374        V  0.28436526  0.44988494  0.76720014     1.35200
C375        C  0.26939592  0.51066039  0.82698135     0.77100
C376        C  0.22408777  0.38472905  0.69718891     0.77100
C377        C  0.28262001  0.38817140  0.83648278     0.77000
C378        C  0.20935807  0.50739837  0.68569059     0.77000
O379        O  0.44143192  0.90219674  0.97060212    -0.72100
O380        O  0.48550870  0.99680483  0.56772339    -0.72400
O381        O  0.44107703  0.99563617  0.96510466    -0.72200
O382        O  0.48611082  0.90404296  0.57340746    -0.72200
O383        O  0.06468981  0.89996785  0.58426757    -0.72200
O384        O  0.01999172  0.99179485  0.97677684    -0.72200
O385        O  0.06450118  0.99319098  0.57926509    -0.72200
O386        O  0.02029121  0.89907300  0.98186973    -0.72300
V387        V  0.46499576  0.94958298  0.51936251     1.35200
V388        V  0.04083908  0.94607305  0.53036310     1.35200
C389        C  0.47298379  0.88553548  0.95863658     0.77100
C390        C  0.03293630  0.01008512  0.59107877     0.77100
C391        C  0.47243607  0.00824318  0.95151249     0.77000
C392        C  0.03371754  0.88761877  0.59839305     0.77000
C393        C  0.36267585  0.23836305  0.90058006    -0.00500
C394        C  0.32568588  0.20301090  0.87961024    -0.12400
C395        C  0.33716055  0.16158715  0.86369330     0.01700
C396        C  0.38738688  0.15399991  0.86956609    -0.00600
C397        C  0.42395468  0.18962967  0.88945918    -0.12300
C398        C  0.41201026  0.23159552  0.90413506     0.01600
H399        H  0.28677947  0.20816348  0.87456325     0.14600
H400        H  0.46274928  0.18445997  0.89426670     0.14600
C401        C  0.45241695  0.26566865  0.92303320     0.36200
C402        C  0.29479002  0.12957201  0.83874907     0.36100
N403        N  0.48667471  0.29113944  0.93660199    -0.44100
N404        N  0.25860805  0.10603167  0.81848792    -0.44100
C405        C  0.06209972  0.34534280  0.55438710    -0.00500
C406        C  0.03304570  0.37479223  0.50953421    -0.12400
C407        C  0.47688203  0.37825640  0.98077094     0.01700
C408        C  0.44823151  0.35305246  0.99750097    -0.00600
C409        C  0.47683600  0.32596968  0.54352872    -0.12300
C410        C  0.03244343  0.32151686  0.57167946     0.01600
H411        H  0.05407654  0.39375901  0.49539371     0.14600
H412        H  0.45531067  0.30554134  0.55635219     0.14600
C413        C  0.05525865  0.28996078  0.61623792     0.36200
C414        C  0.44985202  0.40469738  0.93226842     0.36100
N415        N  0.07044683  0.26492795  0.65191094    -0.44100
N416        N  0.42853656  0.42503075  0.89282081    -0.44100
C417        C  0.27563220  0.32220501  0.98545085    -0.00500
C418        C  0.27525100  0.36253260  0.51037433    -0.12400
C419        C  0.25066275  0.36438361  0.53857334     0.01700
C420        C  0.22803637  0.32398928  0.54567368    -0.00600
C421        C  0.22165649  0.28616124  0.51475462    -0.12300
C422        C  0.24362619  0.28536903  0.98397156     0.01600
H423        H  0.29396916  0.39344218  0.50730596     0.14600
H424        H  0.19762989  0.25749062  0.51297164     0.14600
C425        C  0.22743671  0.24869882  0.94790229     0.36200
C426        C  0.24740480  0.40918857  0.55716464     0.36100
N427        N  0.21370946  0.21927226  0.91890024    -0.44100
N428        N  0.24533460  0.44510762  0.57238093    -0.44100
C429        C  0.31292386  0.01827840  0.79375761    -0.00500
C430        C  0.28241683  0.02147056  0.73963861    -0.12400
C431        C  0.22688775  0.01855320  0.71158103     0.01700
C432        C  0.19920815  0.01524847  0.73760973    -0.00600
C433        C  0.23059740  0.00407583  0.79103791    -0.12300
C434        C  0.28644776  0.00531198  0.81897258     0.01600
H435        H  0.30118463  0.02878669  0.71831403     0.14600
H436        H  0.21231993  0.99737285  0.81282075     0.14600
C437        C  0.31374497  0.99587375  0.87372214     0.36200
C438        C  0.20142866  0.01757218  0.65647098     0.36100
N439        N  0.33296365  0.98874491  0.91747610    -0.44100
N440        N  0.18242680  0.01668985  0.61239568    -0.44100
C441        C  0.48020483  0.06452016  0.79828365    -0.00500
C442        C  0.03648040  0.06078472  0.82595465    -0.12400
C443        C  0.06457271  0.06235611  0.80098360     0.01700
C444        C  0.03646965  0.06491963  0.74644006    -0.00600
C445        C  0.48105190  0.07539073  0.71964214    -0.12300
C446        C  0.45321337  0.07601306  0.74480845     0.01600
H447        H  0.05949376  0.05907010  0.86757201     0.14600
H448        H  0.45906506  0.08397603  0.67864091     0.14600
C449        C  0.39722844  0.09025861  0.71481424     0.36200
C450        C  0.12191668  0.06493686  0.83291001     0.36100
N451        N  0.35247755  0.10194754  0.69094044    -0.44100
N452        N  0.16783200  0.06715293  0.85875278    -0.44100
C453        C  0.12355322  0.15099410  0.66614854    -0.00500
C454        C  0.16033985  0.17833336  0.70626432    -0.12400
C455        C  0.18188741  0.21705583  0.69600761     0.01700
C456        C  0.16669479  0.22863429  0.64498969    -0.00600
C457        C  0.13083580  0.20081340  0.60512449    -0.12300
C458        C  0.10892432  0.16248662  0.61514325     0.01600
H459        H  0.17223986  0.16939524  0.74558026     0.14600
H460        H  0.11805640  0.21037595  0.56565917     0.14600
C461        C  0.06928261  0.13727800  0.57195293     0.36200
C462        C  0.21905700  0.24467858  0.73805376     0.36100
N463        N  0.53751329  0.11728083  0.53717100    -0.44100
N464        N  0.24882425  0.26708503  0.77148350    -0.44100
C465        C  0.38043531  0.74475522  0.87718667    -0.00500
C466        C  0.32480371  0.74256531  0.85288138    -0.12400
C467        C  0.30193438  0.70216613  0.85823014     0.01700
C468        C  0.33515747  0.66304972  0.88773325    -0.00600
C469        C  0.39061262  0.66560269  0.91157043    -0.12300
C470        C  0.41342373  0.70623093  0.90762858     0.01600
H471        H  0.29926713  0.77224568  0.82935569     0.14600
H472        H  0.41664589  0.63632028  0.93504850     0.14600
C473        C  0.47078615  0.70863027  0.93832294     0.36200
C474        C  0.24452904  0.70125936  0.83202314     0.36100
N475        N  0.01672743  0.71032683  0.96420245    -0.44100
N476        N  0.19851173  0.70066288  0.81103515    -0.44100
C477        C  0.42696544  0.55180031  0.98417920    -0.00500
C478        C  0.45472429  0.52431154  0.96814154    -0.12400
C479        C  0.01065677  0.52508781  0.49306566     0.01700
C480        C  0.03984428  0.55489242  0.53433908    -0.00600
C481        C  0.01141666  0.58386597  0.54825570    -0.12300
C482        C  0.45615787  0.58201462  0.52488066     0.01600
H483        H  0.43232710  0.50296013  0.93534374     0.14600
H484        H  0.03199914  0.61048118  0.57526164     0.14600
C485        C  0.43023284  0.61472591  0.54050385     0.36200
C486        C  0.03666834  0.49655374  0.47411497     0.36100
N487        N  0.40973929  0.64099066  0.55323198    -0.44100
N488        N  0.05777215  0.47468212  0.45840776    -0.44100
C489        C  0.25275340  0.57510063  0.97199168    -0.00500
C490        C  0.26556743  0.61118943  0.50671473    -0.12400
C491        C  0.24505476  0.61400724  0.53867051     0.01700
C492        C  0.20799101  0.58138781  0.53482046    -0.00600
C493        C  0.19956586  0.54294702  0.50400025    -0.12300
C494        C  0.22263989  0.53855859  0.97460837     0.01600
H495        H  0.29417897  0.63641700  0.51096309     0.14600
H496        H  0.17593609  0.51475016  0.50428766     0.14600
C497        C  0.21813362  0.49404812  0.95208381     0.36200
C498        C  0.26808820  0.64739239  0.57846991     0.36100
N499        N  0.21415261  0.45808287  0.93442092    -0.44100
N500        N  0.28766326  0.67396979  0.61058832    -0.44100
C501        C  0.30832921  0.88273635  0.81162966    -0.00500
C502        C  0.27686460  0.89528395  0.75852076    -0.12400
C503        C  0.22100334  0.89520425  0.73104747     0.01700
C504        C  0.19486554  0.88209938  0.75641840    -0.00600
C505        C  0.22564368  0.87839721  0.81055428    -0.12300
C506        C  0.28121239  0.88046710  0.83819279     0.01600
H507        H  0.29483681  0.90263922  0.73662224     0.14600
H508        H  0.20712311  0.87134798  0.83216468     0.14600
C509        C  0.30743314  0.88196380  0.89335417     0.36200
C510        C  0.19293782  0.90593584  0.67644710     0.36100
N511        N  0.32700370  0.88328347  0.93747306    -0.44100
N512        N  0.17255762  0.91378881  0.63265743    -0.44100
C513        C  0.03062695  0.83767293  0.75457236    -0.00500
C514        C  0.04137347  0.80189697  0.79145498    -0.12400
C515        C  0.01496266  0.80075888  0.81790583     0.01700
C516        C  0.47461322  0.83513766  0.80666339    -0.00600
C517        C  0.46906881  0.87399467  0.77498611    -0.12300
C518        C  0.49725343  0.87605662  0.75020511     0.01600
H519        H  0.07259003  0.77552860  0.80218172     0.14600
H520        H  0.44471842  0.90431903  0.77122593     0.14600
C521        C  0.49299473  0.91933521  0.72307283     0.36200
C522        C  0.03303931  0.76506208  0.85839835     0.36100
N523        N  0.48916721  0.95421372  0.70143396    -0.44100
N524        N  0.04854914  0.73612893  0.89066158    -0.44100
C525        C  0.12471473  0.74494183  0.68235209    -0.00500
C526        C  0.09573385  0.70482545  0.67562548    -0.12400
C527        C  0.10829763  0.66252752  0.66219769     0.01700
C528        C  0.14574392  0.66065821  0.64661799    -0.00600
C529        C  0.17695831  0.70004422  0.65638777    -0.12300
C530        C  0.16812940  0.74094347  0.67536275     0.01600
H531        H  0.06281488  0.70567070  0.68145809     0.14600
H532        H  0.21019527  0.69872474  0.65098312     0.14600
C533        C  0.20722180  0.77594595  0.69017318     0.36200
C534        C  0.08422490  0.62265930  0.66985774     0.36100
N535        N  0.24071256  0.80189842  0.70172279    -0.44100
N536        N  0.06426857  0.59188266  0.67737901    -0.44100
C537        C  0.56003101  0.83705306  0.22582345     0.86100
C538        C  0.58130721  0.78880545  0.22182312    -0.54100
C539        C  0.60810007  0.78911271  0.19667452     0.09000
C540        C  0.61227919  0.83881441  0.17919383     0.20000
C541        C  0.60913484  0.86695820  0.25148371    -0.54800
C542        C  0.63825490  0.86698448  0.22870885     0.09100
C543        C  0.52652153  0.85564227  0.16969614    -0.54400
C544        C  0.55421091  0.85856447  0.14596838     0.09700
H545        H  0.57388615  0.75679419  0.23584259     0.14200
H546        H  0.63245860  0.83922742  0.15777317     0.00000
H547        H  0.62078477  0.88471716  0.28650498     0.14500
H548        H  0.48516268  0.86797541  0.15101081     0.14300
C549        C  0.68157220  0.58074921  0.06663515     0.86100
C550        C  0.62334579  0.56622281  0.03428571    -0.54100
C551        C  0.59891899  0.56013052  0.06086324     0.09000
C552        C  0.63564702  0.56984553  0.11867770     0.20000
C553        C  0.67633469  0.62576044  0.09063976    -0.54800
C554        C  0.65347058  0.62038752  0.11966552     0.09100
C555        C  0.71042655  0.54490861  0.11208239    -0.54400
C556        C  0.68681358  0.53925895  0.13943729     0.09700
H557        H  0.60195328  0.56519816  0.99263362     0.14200
H558        H  0.61691421  0.56174458  0.14030840     0.00000
H559        H  0.68564382  0.65955940  0.08192781     0.14500
H560        H  0.74703190  0.52591149  0.12204914     0.14300
C561        C  0.94432660  0.83497066  0.33444897     0.86100
C562        C  0.92688080  0.78680311  0.34142266    -0.54100
C563        C  0.90325147  0.78694247  0.36904824     0.09000
C564        C  0.89755364  0.83523678  0.38611847     0.20000
C565        C  0.89163083  0.86527249  0.30887270    -0.54800
C566        C  0.86581491  0.86535018  0.33534832     0.09100
C567        C  0.97847413  0.85318299  0.38836778    -0.54400
C568        C  0.95383587  0.85471270  0.41507977     0.09700
H569        H  0.93067144  0.75553488  0.32428721     0.14200
H570        H  0.88108872  0.83184311  0.41056763     0.00000
H571        H  0.87496698  0.88181134  0.27119646     0.14500
H572        H  0.01686599  0.86828111  0.40191243     0.14300
C573        C  0.78047048  0.57322498  0.44140966     0.86100
C574        C  0.83827149  0.55362771  0.47612139    -0.54100
C575        C  0.86736713  0.55370091  0.45355313     0.09000
C576        C  0.83488196  0.57078733  0.39664295     0.20000
C577        C  0.78570307  0.62138672  0.42111221    -0.54800
C578        C  0.81455089  0.62023257  0.39816794     0.09100
C579        C  0.75542748  0.54435078  0.39287440    -0.54400
C580        C  0.78443886  0.54173098  0.37024439     0.09700
H581        H  0.85611286  0.54468022  0.01680708     0.14200
H582        H  0.85813707  0.56982379  0.37784908     0.00000
H583        H  0.77084928  0.65391777  0.42714029     0.14500
H584        H  0.71732862  0.52822580  0.37633277     0.14300
C585        C  0.56392573  0.06218797  0.21589983     0.86100
C586        C  0.61520651  0.03022281  0.23967652    -0.54100
C587        C  0.64106410  0.03103612  0.21331614     0.09000
C588        C  0.60850598  0.06057978  0.16231666     0.20000
C589        C  0.58026202  0.11018064  0.20706372    -0.54800
C590        C  0.60295836  0.10932387  0.17848604     0.09100
C591        C  0.52874482  0.04310681  0.16199988    -0.54400
C592        C  0.55242548  0.04108942  0.13446671     0.09700
H593        H  0.62905552  0.00881814  0.27424335     0.14200
H594        H  0.62435730  0.06267311  0.13739024     0.00000
H595        H  0.57424450  0.14203356  0.22198447     0.14500
H596        H  0.49070584  0.02764234  0.14884303     0.14300
C597        C  0.70457841  0.32217762  0.08003943     0.86100
C598        C  0.70484669  0.27325660  0.10223711    -0.54100
C599        C  0.68199543  0.27248468  0.13082900     0.09000
C600        C  0.66116877  0.32068103  0.13508430     0.20000
C601        C  0.64532762  0.33899528  0.05045300    -0.54800
C602        C  0.62157827  0.33745268  0.07862245     0.09100
C603        C  0.73290206  0.35128901  0.12831633    -0.54400
C604        C  0.70894568  0.35208950  0.15565017     0.09700
H605        H  0.71973523  0.24156274  0.09472752     0.14200
H606        H  0.64510221  0.32082133  0.16023987     0.00000
H607        H  0.62357987  0.34798281  0.00948117     0.14500
H608        H  0.76885933  0.36994016  0.14037673     0.14300
C609        C  0.95008871  0.06166272  0.32629689     0.86100
C610        C  0.89933756  0.03318537  0.29906396    -0.54100
C611        C  0.86953170  0.03378123  0.32128200     0.09000
C612        C  0.89636364  0.06066271  0.37160980     0.20000
C613        C  0.93148575  0.11004789  0.33195509    -0.54800
C614        C  0.90370165  0.10994783  0.35585227     0.09100
C615        C  0.98118069  0.03918274  0.38098986    -0.54400
C616        C  0.95322008  0.03807163  0.40461582     0.09700
H617        H  0.88783701  0.01490208  0.26440432     0.14200
H618        H  0.87507378  0.06177932  0.39207977     0.00000
H619        H  0.94049549  0.14193803  0.31875153     0.14500
H620        H  0.01960697  0.02079333  0.39778880     0.14300
C621        C  0.80655687  0.32334025  0.45795855     0.86100
C622        C  0.82165419  0.27650596  0.44443714    -0.54100
C623        C  0.84784853  0.28036775  0.41890601     0.09000
C624        C  0.85882695  0.33122941  0.41124464     0.20000
C625        C  0.86087582  0.34600794  0.48975067    -0.54800
C626        C  0.88907034  0.34943702  0.46623252     0.09100
C627        C  0.77657164  0.35243733  0.40733926    -0.54400
C628        C  0.80367268  0.35717868  0.38302930     0.09700
H629        H  0.81577770  0.24269762  0.45660573     0.14200
H630        H  0.87984940  0.33493052  0.39055052     0.00000
H631        H  0.87800388  0.35430963  0.02975916     0.14500
H632        H  0.73773177  0.36942585  0.39298980     0.14300
O633        O  0.72359442  0.49370703  0.30300380    -0.72100
O634        O  0.69074790  0.39794154  0.20849396    -0.72400
O635        O  0.73384885  0.40119022  0.31082212    -0.72200
O636        O  0.67967457  0.49125822  0.19990054    -0.72200
O637        O  0.75846816  0.49503815  0.21150501    -0.72200
O638        O  0.81283104  0.40420289  0.32279183    -0.72200
O639        O  0.76943036  0.40241333  0.21992479    -0.72200
O640        O  0.80265318  0.49782617  0.31535622    -0.72300
V641        V  0.70852002  0.44616190  0.25571329     1.35200
V642        V  0.78436475  0.44988380  0.26720024     1.35200
C643        C  0.76939605  0.51065938  0.32698164     0.77100
C644        C  0.72408697  0.38472815  0.19718912     0.77100
C645        C  0.78262003  0.38816986  0.33648292     0.77000
C646        C  0.70935722  0.50739743  0.18569111     0.77000
O647        O  0.94143262  0.90219449  0.47060360    -0.72100
O648        O  0.98550867  0.99680691  0.06772207    -0.72400
O649        O  0.94107743  0.99563383  0.46510620    -0.72200
O650        O  0.98611049  0.90404518  0.07340594    -0.72200
O651        O  0.56468953  0.89997008  0.08426595    -0.72200
O652        O  0.51999248  0.99179302  0.47677892    -0.72200
O653        O  0.56450103  0.99319315  0.07926325    -0.72200
O654        O  0.52029202  0.89907130  0.48187132    -0.72300
V655        V  0.96499538  0.94958521  0.01936104     1.35200
V656        V  0.54083859  0.94607509  0.03036123     1.35200
C657        C  0.97298458  0.88553388  0.45863780     0.77100
C658        C  0.53293644  0.01008693  0.09107754     0.77100
C659        C  0.97243665  0.00824105  0.45151436     0.77000
C660        C  0.53371723  0.88762099  0.09839143     0.77000
C661        C  0.86267588  0.23836077  0.40057971    -0.00500
C662        C  0.82568649  0.20300821  0.37961137    -0.12400
C663        C  0.83716081  0.16158401  0.36369507     0.01700
C664        C  0.88738646  0.15399697  0.36956616    -0.00600
C665        C  0.92395395  0.18962717  0.38945773    -0.12300
C666        C  0.91200978  0.23159320  0.40413365     0.01600
H667        H  0.78677917  0.20816085  0.37456524     0.14600
H668        H  0.96274760  0.18445768  0.39426431     0.14600
C669        C  0.95241654  0.26566633  0.42303133     0.36200
C670        C  0.79479102  0.12956787  0.33875410     0.36100
N671        N  0.98667423  0.29113719  0.43659999    -0.44100
N672        N  0.75860933  0.10602691  0.31849604    -0.44100
C673        C  0.56209891  0.34534305  0.05438757    -0.00500
C674        C  0.53304517  0.37479355  0.00953577    -0.12400
C675        C  0.97688236  0.37825451  0.48076931     0.01700
C676        C  0.94823217  0.35305116  0.49749992    -0.00600
C677        C  0.97683478  0.32596979  0.04352903    -0.12300
C678        C  0.53244233  0.32151646  0.07167941     0.01600
H679        H  0.55407711  0.39376155  0.99539532     0.14600
H680        H  0.95531104  0.30554280  0.05635085     0.14600
C681        C  0.55525754  0.28995926  0.11623691     0.36200
C682        C  0.94985221  0.40469476  0.43226633     0.36100
N683        N  0.57044573  0.26492550  0.15190926    -0.44100
N684        N  0.92853671  0.42502766  0.39281846    -0.44100
C685        C  0.77563379  0.32220331  0.48545148    -0.00500
C686        C  0.77524932  0.36253417  0.01037399    -0.12400
C687        C  0.75066105  0.36438481  0.03857293     0.01700
C688        C  0.72803496  0.32399007  0.04567313    -0.00600
C689        C  0.72165508  0.28616249  0.01475366    -0.12300
C690        C  0.74362791  0.28536726  0.48397274     0.01600
H691        H  0.79396798  0.39344481  0.00730577     0.14600
H692        H  0.69762826  0.25749135  0.01297046     0.14600
C693        C  0.72743900  0.24869626  0.44790439     0.36200
C694        C  0.74740232  0.40918956  0.05716410     0.36100
N695        N  0.71371228  0.21926901  0.41890315    -0.44100
N696        N  0.74533135  0.44510852  0.07238017    -0.44100
C697        C  0.81292432  0.01827517  0.29375912    -0.00500
C698        C  0.78241771  0.02146835  0.23964000    -0.12400
C699        C  0.72688833  0.01855231  0.21158212     0.01700
C700        C  0.69920836  0.01524748  0.23761034    -0.00600
C701        C  0.73059716  0.00407390  0.29103851    -0.12300
C702        C  0.78644773  0.00530905  0.31897350     0.01600
H703        H  0.80118516  0.02878405  0.21831667     0.14600
H704        H  0.71231970  0.99737119  0.31282066     0.14600
C705        C  0.81374470  0.99587014  0.37372298     0.36200
C706        C  0.70142966  0.01757299  0.15647196     0.36100
N707        N  0.83296343  0.98874075  0.41747684    -0.44100
N708        N  0.68242823  0.01669197  0.11239667    -0.44100
C709        C  0.98020505  0.06451613  0.29828470    -0.00500
C710        C  0.53648051  0.06078155  0.32595525    -0.12400
C711        C  0.56457255  0.06235380  0.30098386     0.01700
C712        C  0.53646943  0.06491731  0.24644035    -0.00600
C713        C  0.98105147  0.07538703  0.21964272    -0.12300
C714        C  0.95321313  0.07600835  0.24480926     0.01600
H715        H  0.55949371  0.05906707  0.36757195     0.14600
H716        H  0.95906435  0.08397210  0.17864171     0.14600
C717        C  0.89722767  0.09025218  0.21481488     0.36200
C718        C  0.62191648  0.06493506  0.33291012     0.36100
N719        N  0.85247633  0.10193961  0.19094100    -0.44100
N720        N  0.66783177  0.06715150  0.35875273    -0.44100
C721        C  0.62355351  0.15099411  0.16615024    -0.00500
C722        C  0.66034179  0.17833253  0.20626547    -0.12400
C723        C  0.68188905  0.21705484  0.19600852     0.01700
C724        C  0.66669476  0.22863376  0.14499008    -0.00600
C725        C  0.63083395  0.20081377  0.10512488    -0.12300
C726        C  0.60892235  0.16248747  0.11514436     0.01600
H727        H  0.67224408  0.16939324  0.24558414     0.14600
H728        H  0.61805321  0.21037673  0.06565996     0.14600
C729        C  0.56927769  0.13728058  0.07195404     0.36200
C730        C  0.71905972  0.24467729  0.23805422     0.36100
N731        N  0.03750583  0.11728492  0.03717235    -0.44100
N732        N  0.74882776  0.26708347  0.27148382    -0.44100
C733        C  0.88043837  0.74475386  0.37718637    -0.00500
C734        C  0.82480710  0.74256409  0.35288224    -0.12400
C735        C  0.80193749  0.70216528  0.35823079     0.01700
C736        C  0.83516033  0.66304833  0.38773256    -0.00600
C737        C  0.89061572  0.66560032  0.41156869    -0.12300
C738        C  0.91342668  0.70622910  0.40762713     0.01600
H739        H  0.79926924  0.77224648  0.32935630     0.14600
H740        H  0.91664697  0.63631962  0.43504403     0.14600
C741        C  0.97078928  0.70862806  0.43832189     0.36200
C742        C  0.74453239  0.70125926  0.33202574     0.36100
N743        N  0.51673051  0.71032443  0.46420178    -0.44100
N744        N  0.69851517  0.70066361  0.31103935    -0.44100
C745        C  0.92696690  0.55179847  0.48417843    -0.00500
C746        C  0.95472620  0.52430892  0.46814224    -0.12400
C747        C  0.51065528  0.52508989  0.99306588     0.01700
C748        C  0.53984308  0.55489250  0.03434054    -0.00600
C749        C  0.51141639  0.58386509  0.04826001    -0.12300
C750        C  0.95615652  0.58201387  0.02488299     0.01600
H751        H  0.93232746  0.50295436  0.43534290     0.14600
H752        H  0.53199578  0.61047370  0.07526379     0.14600
C753        C  0.93023232  0.61472438  0.04050818     0.36200
C754        C  0.53666623  0.49655592  0.97411448     0.36100
N755        N  0.90973913  0.64098823  0.05323756    -0.44100
N756        N  0.55776962  0.47468423  0.95840697    -0.44100
C757        C  0.75275558  0.57510148  0.47199213    -0.00500
C758        C  0.76556656  0.61118769  0.00671563    -0.12400
C759        C  0.74505452  0.61400522  0.03867178     0.01700
C760        C  0.70798936  0.58138662  0.03482055    -0.00600
C761        C  0.69956282  0.54294681  0.00399898    -0.12300
C762        C  0.72264309  0.53855872  0.47460995     0.01600
H763        H  0.79417958  0.63641540  0.01096468     0.14600
H764        H  0.67593110  0.51474910  0.00428566     0.14600
C765        C  0.71813798  0.49404815  0.45208613     0.36200
C766        C  0.76808967  0.64738883  0.07847272     0.36100
N767        N  0.71415768  0.45808276  0.43442362    -0.44100
N768        N  0.78766609  0.67396496  0.11059240    -0.44100
C769        C  0.80832975  0.88273433  0.31162926    -0.00500
C770        C  0.77686523  0.89528275  0.25852089    -0.12400
C771        C  0.72100432  0.89520420  0.23104722     0.01700
C772        C  0.69486585  0.88209928  0.25641782    -0.00600
C773        C  0.72564403  0.87839576  0.31055323    -0.12300
C774        C  0.78121242  0.88046451  0.33819231     0.01600
H775        H  0.79483963  0.90263887  0.23662076     0.14600
H776        H  0.70712101  0.87134556  0.33216534     0.14600
C777        C  0.80743312  0.88195988  0.39335371     0.36200
C778        C  0.69293883  0.90593694  0.17644704     0.36100
N779        N  0.82700347  0.88327856  0.43747269    -0.44100
N780        N  0.67255849  0.91379072  0.13265744    -0.44100
C781        C  0.53062656  0.83767507  0.25457081    -0.00500
C782        C  0.54137587  0.80189943  0.29145524    -0.12400
C783        C  0.51496545  0.80076178  0.31790697     0.01700
C784        C  0.97461500  0.83513918  0.30666382    -0.00600
C785        C  0.96906860  0.87399564  0.27498508    -0.12300
C786        C  0.99725233  0.87605785  0.25020328     0.01600
H787        H  0.57258961  0.77553509  0.30218128     0.14600
H788        H  0.94471713  0.90431978  0.27122436     0.14600
C789        C  0.99299197  0.91933618  0.22306984     0.36200
C790        C  0.53304467  0.76506621  0.35840126     0.36100
N791        N  0.98916313  0.95421442  0.20142997    -0.44100
N792        N  0.54855636  0.73613444  0.39066606    -0.44100
C793        C  0.62471418  0.74494324  0.18235060    -0.00500
C794        C  0.59573514  0.70482621  0.17562642    -0.12400
C795        C  0.60829972  0.66252794  0.16220022     0.01700
C796        C  0.64574473  0.66065861  0.14661887    -0.00600
C797        C  0.67695746  0.70004529  0.15638612    -0.12300
C798        C  0.66812813  0.74094505  0.17535990     0.01600
H799        H  0.56281560  0.70567116  0.18146038     0.14600
H800        H  0.71019441  0.69872598  0.15098039     0.14600
C801        C  0.70721935  0.77594823  0.19016764     0.36200
C802        C  0.58423073  0.62265928  0.16986467     0.36100
N803        N  0.74070932  0.80190107  0.20171482    -0.44100
N804        N  0.56427769  0.59188233  0.17738990    -0.44100
C805        C  0.56003002  0.83705178  0.72582346     0.86100
C806        C  0.58130752  0.78880411  0.72182467    -0.54100
C807        C  0.60810016  0.78911137  0.69667577     0.09000
C808        C  0.61227778  0.83881274  0.67919344     0.20000
C809        C  0.60913307  0.86695816  0.75148261    -0.54800
C810        C  0.63825284  0.86698427  0.72870728     0.09100
C811        C  0.52651987  0.85563945  0.66969565    -0.54400
C812        C  0.55420904  0.85856151  0.64596764     0.09700
H813        H  0.57388730  0.75679351  0.73584452     0.14200
H814        H  0.63245715  0.83922537  0.65777255     0.00000
H815        H  0.62078207  0.88471762  0.78650212     0.14500
H816        H  0.48516081  0.86797197  0.65101019     0.14300
C817        C  0.68157323  0.58075011  0.56663461     0.86100
C818        C  0.62334723  0.56622280  0.53428519    -0.54100
C819        C  0.59892028  0.56013007  0.56086234     0.09000
C820        C  0.63564772  0.56984548  0.61867671     0.20000
C821        C  0.67633454  0.62576118  0.59063889    -0.54800
C822        C  0.65347019  0.62038774  0.61966434     0.09100
C823        C  0.71042793  0.54490986  0.61208218    -0.54400
C824        C  0.68681491  0.53925967  0.63943687     0.09700
H825        H  0.60195422  0.56519767  0.49263180     0.14200
H826        H  0.61691474  0.56174419  0.64030756     0.00000
H827        H  0.68564354  0.65956082  0.58192710     0.14500
H828        H  0.74703450  0.52591264  0.62204941     0.14300
C829        C  0.94432308  0.83496846  0.83444682     0.86100
C830        C  0.92687596  0.78680171  0.84142120    -0.54100
C831        C  0.90324648  0.78694297  0.86904667     0.09000
C832        C  0.89754951  0.83523808  0.88611568     0.20000
C833        C  0.89162773  0.86527108  0.80886950    -0.54800
C834        C  0.86581159  0.86535069  0.83534490     0.09100
C835        C  0.97847045  0.85318152  0.88836507    -0.54400
C836        C  0.95383221  0.85471327  0.91507678     0.09700
H837        H  0.93066543  0.75553334  0.82428646     0.14200
H838        H  0.88108393  0.83184583  0.91056473     0.00000
H839        H  0.87496458  0.88180939  0.77119289     0.14500
H840        H  0.01686437  0.86827940  0.90191021     0.14300
C841        C  0.78046866  0.57322366  0.94140971     0.86100
C842        C  0.83827019  0.55362767  0.97612208    -0.54100
C843        C  0.86736599  0.55370189  0.95355394     0.09000
C844        C  0.83488082  0.57078780  0.89664371     0.20000
C845        C  0.78569982  0.62138555  0.92111184    -0.54800
C846        C  0.81454805  0.62023250  0.89816809     0.09100
C847        C  0.75542694  0.54434880  0.89287489    -0.54400
C848        C  0.78443870  0.54173025  0.87024503     0.09700
H849        H  0.85611480  0.54468022  0.51680749     0.14200
H850        H  0.85813629  0.56982509  0.87785003     0.00000
H851        H  0.77084470  0.65391690  0.92713976     0.14500
H852        H  0.71732929  0.52822327  0.87633340     0.14300
C853        C  0.56392478  0.06218764  0.71589832     0.86100
C854        C  0.61520567  0.03022280  0.73967487    -0.54100
C855        C  0.64106283  0.03103590  0.71331410     0.09000
C856        C  0.60850401  0.06057892  0.66231434     0.20000
C857        C  0.58026042  0.11018036  0.70706129    -0.54800
C858        C  0.60295635  0.10932327  0.67848312     0.09100
C859        C  0.52874355  0.04310594  0.66199887    -0.54400
C860        C  0.55242373  0.04108802  0.63446528     0.09700
H861        H  0.62905523  0.00881789  0.77424217     0.14200
H862        H  0.62435527  0.06267179  0.63738739     0.00000
H863        H  0.57424322  0.14203246  0.72198152     0.14500
H864        H  0.49070428  0.02764128  0.64884259     0.14300
C865        C  0.70457883  0.32217718  0.58003925     0.86100
C866        C  0.70484614  0.27325625  0.60223669    -0.54100
C867        C  0.68199441  0.27248512  0.63082827     0.09000
C868        C  0.66116888  0.32068189  0.63508372     0.20000
C869        C  0.64532835  0.33899573  0.55045257    -0.54800
C870        C  0.62157876  0.33745372  0.57862190     0.09100
C871        C  0.73290312  0.35128851  0.62831621    -0.54400
C872        C  0.70894641  0.35208965  0.65564986     0.09700
H873        H  0.71973382  0.24156317  0.59472768     0.14200
H874        H  0.64510231  0.32082282  0.66023954     0.00000
H875        H  0.62358120  0.34798290  0.50948118     0.14500
H876        H  0.76885969  0.36993882  0.64037620     0.14300
C877        C  0.95008773  0.06166684  0.82629493     0.86100
C878        C  0.89933581  0.03319063  0.79906065    -0.54100
C879        C  0.86952993  0.03378589  0.82127879     0.09000
C880        C  0.89636250  0.06066611  0.87160747     0.20000
C881        C  0.93148609  0.11005212  0.83195454    -0.54800
C882        C  0.90370167  0.10995131  0.85585152     0.09100
C883        C  0.98117915  0.03918532  0.88098715    -0.54400
C884        C  0.95321839  0.03807399  0.90461300     0.09700
H885        H  0.88783525  0.01490822  0.76440077     0.14200
H886        H  0.87507252  0.06178292  0.89207757     0.00000
H887        H  0.94049620  0.14194083  0.81875278     0.14500
H888        H  0.01960455  0.02079558  0.89778538     0.14300
C889        C  0.80655592  0.32334250  0.95795840     0.86100
C890        C  0.82165354  0.27650807  0.94443742    -0.54100
C891        C  0.84784838  0.28036969  0.91890679     0.09000
C892        C  0.85882663  0.33123128  0.91124505     0.20000
C893        C  0.86087467  0.34601043  0.98975045    -0.54800
C894        C  0.88906941  0.34943940  0.96623268     0.09100
C895        C  0.77657078  0.35243922  0.90733875    -0.54400
C896        C  0.80367219  0.35718017  0.88302908     0.09700
H897        H  0.81577600  0.24269929  0.95660556     0.14200
H898        H  0.87984929  0.33493220  0.89055136     0.00000
H899        H  0.87800478  0.35430693  0.52975861     0.14500
H900        H  0.73773110  0.36942744  0.89298896     0.14300
O901        O  0.72359439  0.49370746  0.80300301    -0.72100
O902        O  0.69074846  0.39794231  0.70849304    -0.72400
O903        O  0.73384857  0.40119088  0.81082103    -0.72200
O904        O  0.67967542  0.49125896  0.69989977    -0.72200
O905        O  0.75846929  0.49503891  0.71150493    -0.72200
O906        O  0.81283106  0.40420346  0.82279143    -0.72200
O907        O  0.76943113  0.40241395  0.71992434    -0.72200
O908        O  0.80265350  0.49782658  0.81535629    -0.72300
V909        V  0.70852030  0.44616257  0.75571236     1.35200
V910        V  0.78436532  0.44988440  0.76719998     1.35200
C911        C  0.76939614  0.51065946  0.82698161     0.77100
C912        C  0.72408774  0.38472874  0.69718850     0.77100
C913        C  0.78261977  0.38817069  0.83648229     0.77000
C914        C  0.70935834  0.50739818  0.68569070     0.77000
O915        O  0.94142970  0.90219639  0.97060016    -0.72100
O916        O  0.98551012  0.99680518  0.56772521    -0.72400
O917        O  0.94107549  0.99563575  0.96510292    -0.72200
O918        O  0.98611293  0.90404334  0.57340948    -0.72200
O919        O  0.56468744  0.89996657  0.58426499    -0.72200
O920        O  0.51999304  0.99179519  0.97677808    -0.72200
O921        O  0.56449996  0.99318972  0.57926378    -0.72200
O922        O  0.52029369  0.89907327  0.98187228    -0.72300
V923        V  0.96499756  0.94958334  0.51936442     1.35200
V924        V  0.54083726  0.94607226  0.53036115     1.35200
C925        C  0.97298124  0.88553530  0.95863416     0.77100
C926        C  0.53293504  0.01008433  0.59107722     0.77100
C927        C  0.97243477  0.00824290  0.95151112     0.77000
C928        C  0.53371520  0.88761787  0.59839067     0.77000
C929        C  0.86267628  0.23836295  0.90058063    -0.00500
C930        C  0.82568584  0.20301117  0.87961004    -0.12400
C931        C  0.83716040  0.16158757  0.86369265     0.01700
C932        C  0.88738690  0.15400010  0.86956598    -0.00600
C933        C  0.92395510  0.18962949  0.88945990    -0.12300
C934        C  0.91201087  0.23159525  0.90413605     0.01600
H935        H  0.78677986  0.20816388  0.87456279     0.14600
H936        H  0.96274992  0.18445958  0.89426775     0.14600
C937        C  0.95241782  0.26566815  0.92303477     0.36200
C938        C  0.79478949  0.12957291  0.83874729     0.36100
N939        N  0.98667585  0.29113870  0.93660402    -0.44100
N940        N  0.75860739  0.10603281  0.81848513    -0.44100
C941        C  0.56209932  0.34534380  0.55438654    -0.00500
C942        C  0.53304521  0.37479284  0.50953355    -0.12400
C943        C  0.97688141  0.37825700  0.98077013     0.01700
C944        C  0.94823117  0.35305342  0.99750018    -0.00600
C945        C  0.97683630  0.32596855  0.54352918    -0.12300
C946        C  0.53244295  0.32151801  0.57167908     0.01600
H947        H  0.55407695  0.39376012  0.49539230     0.14600
H948        H  0.95531147  0.30554060  0.55635225     0.14600
C949        C  0.55525805  0.28996208  0.61623763     0.36200
C950        C  0.94985148  0.40469770  0.93226742     0.36100
N951        N  0.57044605  0.26492934  0.65191072    -0.44100
N952        N  0.92853597  0.42503084  0.89281974    -0.44100
C953        C  0.77563260  0.32220566  0.98545106    -0.00500
C954        C  0.77524949  0.36253233  0.51037316    -0.12400
C955        C  0.75066117  0.36438348  0.53857201     0.01700
C956        C  0.72803573  0.32398878  0.54567318    -0.00600
C957        C  0.72165707  0.28616034  0.51475516    -0.12300
C958        C  0.74362549  0.28537019  0.98397080     0.01600
H959        H  0.79396788  0.39344328  0.50730422     0.14600
H960        H  0.69763072  0.25748894  0.51297260     0.14600
C961        C  0.72743476  0.24870103  0.94790016     0.36200
C962        C  0.74740227  0.40918840  0.55716276     0.36100
N963        N  0.71370654  0.21927552  0.91889679    -0.44100
N964        N  0.74533126  0.44510747  0.57237864    -0.44100
C965        C  0.81292294  0.01827870  0.79375634    -0.00500
C966        C  0.78241607  0.02147028  0.73963722    -0.12400
C967        C  0.72688691  0.01855275  0.71157962     0.01700
C968        C  0.69920722  0.01524805  0.73760826    -0.00600
C969        C  0.73059655  0.00407603  0.79103646    -0.12300
C970        C  0.78644673  0.00531260  0.81897130     0.01600
H971        H  0.80118354  0.02878609  0.71831304     0.14600
H972        H  0.71231845  0.99737316  0.81281985     0.14600
C973        C  0.81374365  0.99587549  0.87372098     0.36200
C974        C  0.70142786  0.01757186  0.65646951     0.36100
N975        N  0.83296190  0.98874774  0.91747502    -0.44100
N976        N  0.68242602  0.01668966  0.61239422    -0.44100
C977        C  0.98020471  0.06452093  0.79828351    -0.00500
C978        C  0.53648060  0.06078317  0.82595449    -0.12400
C979        C  0.56457242  0.06235411  0.80098277     0.01700
C980        C  0.53646907  0.06491787  0.74643931    -0.00600
C981        C  0.98105252  0.07539215  0.71964259    -0.12300
C982        C  0.95321350  0.07601398  0.74480826     0.01600
H983        H  0.55949356  0.05906845  0.86757034     0.14600
H984        H  0.95906545  0.08397764  0.67864040     0.14600
C985        C  0.89722846  0.09025909  0.71481364     0.36200
C986        C  0.62191652  0.06493397  0.83290902     0.36100
N987        N  0.85247744  0.10194763  0.69093942    -0.44100
N988        N  0.66783194  0.06714924  0.85875162    -0.44100
C989        C  0.62355160  0.15099373  0.66614749    -0.00500
C990        C  0.66033806  0.17833308  0.70626296    -0.12400
C991        C  0.68188543  0.21705566  0.69600648     0.01700
C992        C  0.66669257  0.22863437  0.64498840    -0.00600
C993        C  0.63083339  0.20081360  0.60512331    -0.12300
C994        C  0.60892213  0.16248667  0.61514198     0.01600
H995        H  0.67223879  0.16939445  0.74558060     0.14600
H996        H  0.61805344  0.21037656  0.56565700     0.14600
C997        C  0.56928009  0.13727821  0.57195170     0.36200
C998        C  0.71905501  0.24467846  0.73805251     0.36100
N999        N  0.03751615  0.11728045  0.53717221    -0.44100
N1000       N  0.74882227  0.26708497  0.77148223    -0.44100
C1001       C  0.88043381  0.74475488  0.87718649    -0.00500
C1002       C  0.82480244  0.74256459  0.85288215    -0.12400
C1003       C  0.80193347  0.70216528  0.85823091     0.01700
C1004       C  0.83515681  0.66304892  0.88773317    -0.00600
C1005       C  0.89061240  0.66560157  0.91157020    -0.12300
C1006       C  0.91342256  0.70623073  0.90762786     0.01600
H1007       H  0.79926481  0.77224579  0.82935616     0.14600
H1008       H  0.91664286  0.63632269  0.93504503     0.14600
C1009       C  0.97078519  0.70862999  0.93832201     0.36200
C1010       C  0.74452836  0.70125814  0.83202486     0.36100
N1011       N  0.51672840  0.71032691  0.96420368    -0.44100
N1012       N  0.69851115  0.70066142  0.81103761    -0.44100
C1013       C  0.92696562  0.55179951  0.98417967    -0.00500
C1014       C  0.95472475  0.52431054  0.96814244    -0.12400
C1015       C  0.51065756  0.52508739  0.49306692     0.01700
C1016       C  0.53984460  0.55489189  0.53433973    -0.00600
C1017       C  0.51141708  0.58386593  0.54825671    -0.12300
C1018       C  0.95615804  0.58201491  0.52488061     0.01600
H1019       H  0.93232779  0.50295895  0.93534497     0.14600
H1020       H  0.53199707  0.61047816  0.57525957     0.14600
C1021       C  0.93023330  0.61472529  0.54050493     0.36200
C1022       C  0.53666896  0.49655339  0.47411585     0.36100
N1023       N  0.90974023  0.64098930  0.55323438    -0.44100
N1024       N  0.55777295  0.47468216  0.45840862    -0.44100
C1025       C  0.75275394  0.57509971  0.97199227    -0.00500
C1026       C  0.76556715  0.61119003  0.50671473    -0.12400
C1027       C  0.74505484  0.61400733  0.53867078     0.01700
C1028       C  0.70799063  0.58138788  0.53482024    -0.00600
C1029       C  0.69956543  0.54294789  0.50399946    -0.12300
C1030       C  0.72264043  0.53855753  0.97460927     0.01600
H1031       H  0.79417932  0.63641805  0.51096338     0.14600
H1032       H  0.67593356  0.51474882  0.50428654     0.14600
C1033       C  0.71813433  0.49404701  0.95208496     0.36200
C1034       C  0.76808898  0.64739163  0.57847110     0.36100
N1035       N  0.71415335  0.45808163  0.93442225    -0.44100
N1036       N  0.78766461  0.67396825  0.61059034    -0.44100
C1037       C  0.80832690  0.88273621  0.81162569    -0.00500
C1038       C  0.77686222  0.89528301  0.75851691    -0.12400
C1039       C  0.72100121  0.89520440  0.73104367     0.01700
C1040       C  0.69486317  0.88210080  0.75641508    -0.00600
C1041       C  0.72564155  0.87839974  0.81055066    -0.12300
C1042       C  0.78121000  0.88046881  0.83818914     0.01600
H1043       H  0.79483622  0.90263729  0.73661668     0.14600
H1044       H  0.70711943  0.87135130  0.83216289     0.14600
C1045       C  0.80743109  0.88196673  0.89335039     0.36200
C1046       C  0.69293540  0.90593570  0.67644323     0.36100
N1047       N  0.82700173  0.88328740  0.93746924    -0.44100
N1048       N  0.67255496  0.91378853  0.63265346    -0.44100
C1049       C  0.53062582  0.83767419  0.75457111    -0.00500
C1050       C  0.54137480  0.80189941  0.79145589    -0.12400
C1051       C  0.51496484  0.80076202  0.81790777     0.01700
C1052       C  0.97461193  0.83513539  0.80666214    -0.00600
C1053       C  0.96907007  0.87399358  0.77498737    -0.12300
C1054       C  0.99725588  0.87605600  0.75020765     0.01600
H1055       H  0.57259089  0.77553273  0.80218282     0.14600
H1056       H  0.94472054  0.90431837  0.77122828     0.14600
C1057       C  0.99300014  0.91933562  0.72307824     0.36200
C1058       C  0.53304312  0.76506642  0.85840178     0.36100
N1059       N  0.98917532  0.95421496  0.70144184    -0.44100
N1060       N  0.54855399  0.73613442  0.89066631    -0.44100
C1061       C  0.62471432  0.74494191  0.68235195    -0.00500
C1062       C  0.59573458  0.70482513  0.67562664    -0.12400
C1063       C  0.60829817  0.66252731  0.66219863     0.01700
C1064       C  0.64574388  0.66065828  0.64661800    -0.00600
C1065       C  0.67695728  0.70004461  0.65638681    -0.12300
C1066       C  0.66812836  0.74094390  0.67536141     0.01600
H1067       H  0.56281535  0.70567012  0.68146048     0.14600
H1068       H  0.71019503  0.69872537  0.65098132     0.14600
C1069       C  0.70721985  0.77594690  0.69017011     0.36200
C1070       C  0.58422612  0.62265885  0.66985917     0.36100
N1071       N  0.74071010  0.80189959  0.70171805    -0.44100
N1072       N  0.56427042  0.59188201  0.67738100    -0.44100
loop_ 
_geom_bond_atom_site_label_1 
_geom_bond_atom_site_label_2 
_geom_bond_distance 
_geom_bond_site_symmetry_2 
_ccdc_geom_bond_type 
C1            C2   1.544       .  S
C1            C7   1.532       .  S
C1            C5   1.530       .  S
C1          C245   1.537       .  S
C2            H9   1.080       .  S
C2            C3   1.372       .  D
C3            C4   1.542       .  S
C3          C257   1.509       .  S
C4            C8   1.542       .  S
C4            C6   1.550       .  S
C4           H10   1.101       .  S
C5           H11   1.085       .  S
C5            C6   1.371       .  D
C6          C236   1.502       .  S
C7           H12   1.085   1_455  S
C7            C8   1.360       .  D
C8          C124   1.472       .  S
C13          C14   1.537       .  S
C13          C19   1.534       .  S
C13          C17   1.549       .  S
C13         C224   1.545       .  S
C14          H21   1.085   1_554  S
C14          C15   1.360       .  D
C15          C16   1.547       .  S
C15         C212   1.499       .  S
C16          C20   1.536       .  S
C16          C18   1.550       .  S
C16          H22   1.093       .  S
C17          H23   1.080       .  S
C17          C18   1.386       .  D
C18         C260   1.522       .  S
C19          H24   1.086       .  S
C19          C20   1.360       .  D
C20         C110   1.481       .  S
C25          C26   1.535       .  S
C25          C31   1.524       .  S
C25          C29   1.552       .  S
C25         C248   1.534       .  S
C26          H33   1.086       .  S
C26          C27   1.359       .  D
C27          C28   1.532       .  S
C27         C197   1.478       .  S
C28          C32   1.539       .  S
C28          C30   1.547       .  S
C28          H34   1.096       .  S
C29          H35   1.077       .  S
C29          C30   1.383       .  D
C30         C233   1.517       .  S
C31          H36   1.087       .  S
C31          C32   1.360       .  D
C32         C121   1.473       .  S
C37          C38   1.538       .  S
C37          C43   1.540       .  S
C37          C41   1.546       .  S
C37         C221   1.545       .  S
C38         H313   1.086       .  S
C38          C39   1.365       .  D
C39          C40   1.537       .  S
C39         C209   1.493       .  S
C40          C44   1.544       .  S
C40          C42   1.541       .  S
C40          H46   1.111       .  S
C41          H47   1.085       .  S
C41          C42   1.369       .  D
C42         C200   1.485       .  S
C43          H48   1.082       .  S
C43          C44   1.366       .  D
C44         C107   1.486       .  S
H45         C306   1.086   1_554  S
C49          C50   1.551       .  S
C49          C55   1.536       .  S
C49          C53   1.534       .  S
C49         C176   1.538       .  S
C50          H57   1.079       .  S
C50          C51   1.381       .  D
C51          C52   1.545       .  S
C51         C164   1.519       .  S
C52          C56   1.535       .  S
C52          C54   1.531       .  S
C52          H58   1.093       .  S
C53          H59   1.086       .  S
C53          C54   1.362       .  D
C54         C185   1.484       .  S
C55          H60   1.085   1_455  S
C55          C56   1.359       .  D
C56         C122   1.472       .  S
C61          C62   1.543       .  S
C61          C67   1.539       .  S
C61          C65   1.543       .  S
C61         C152   1.544       .  S
C62          H69   1.085       .  S
C62          C63   1.366       .  D
C63          C64   1.539       .  S
C63         C188   1.478       .  S
C64          C68   1.532       .  S
C64          C66   1.542       .  S
C64          H70   1.103       .  S
C65          H71   1.085       .  S
C65          C66   1.377       .  D
C66         C137   1.512       .  S
C67          H72   1.083       .  S
C67          C68   1.359       .  D
C68         C108   1.476       .  S
C73          C74   1.542       .  S
C73          C79   1.535       .  S
C73          C77   1.531       .  S
C73         C173   1.538       .  S
C74          H81   1.084       .  S
C74          C75   1.375       .  D
C75          C76   1.548       .  S
C75         C161   1.505       .  S
C76          C80   1.544       .  S
C76          C78   1.540       .  S
C76          H82   1.104       .  S
C77          H83   1.086       .  S
C77          C78   1.365       .  D
C78         C128   1.493       .  S
C79          H84   1.084       .  S
C79          C80   1.363       .  D
C80         C123   1.474       .  S
C85          C86   1.543       .  S
C85          C91   1.527       .  S
C85          C89   1.539       .  S
C85         C149   1.543       .  S
C86          H93   1.081       .  S
C86          C87   1.371       .  D
C87          C88   1.541       .  S
C87         C125   1.497       .  S
C88          C92   1.543       .  S
C88          C90   1.543       .  S
C88          H94   1.107       .  S
C89         H363   1.087       .  S
C89          C90   1.369       .  D
C90         C140   1.491       .  S
C91          H96   1.086       .  S
C91          C92   1.364       .  D
C92         C109   1.478       .  S
H95         C357   1.087   1_554  S
O97         V105   1.900       .  S
O97         C107   1.266       .  A
O98         V105   1.902       .  S
O98         C108   1.264       .  A
O99         V105   1.893       .  S
O99         C109   1.263       .  A
O100        V105   1.902       .  S
O100        C110   1.263       .  A
O101        V106   1.907       .  S
O101        C110   1.267       .  A
O102        V106   1.909       .  S
O102        C109   1.265       .  A
O103        V106   1.899       .  S
O103        C108   1.264       .  A
O104        V106   1.913       .  S
O104        C107   1.266       .  A
V105        V106   2.087       .  T
O111        V387   1.901       .  S
O111        C121   1.263       .  A
O112        V119   1.895       .  S
O112        C658   1.264   1_565  A
O113        V387   1.900       .  S
O113        C123   1.261   1_565  A
O114        V119   1.897       .  S
O114        C660   1.264       .  A
O115        V120   1.895       .  S
O115        C124   1.260       .  A
O116        V388   1.892       .  S
O116        C659   1.264   1_465  A
O117        V120   1.898       .  S
O117        C122   1.263   1_565  A
O118        V388   1.893       .  S
O118        C657   1.264   1_455  A
V119        O379   1.901   1_554  S
V119        O381   1.900   1_554  S
V119        V656   2.087       .  T
V120        O384   1.892   1_554  S
V120        O386   1.893   1_554  S
V120        V655   2.087   1_455  T
C121        O654   1.264       .  A
C122        O648   1.264   1_445  A
C123        O652   1.264   1_545  A
C124        O650   1.264   1_455  A
C125        C126   1.405       .  A
C125        C130   1.416       .  A
C126        C127   1.399       .  A
C126        H131   1.085       .  S
C127        C128   1.412       .  A
C127        C134   1.438       .  S
C128        C129   1.403       .  A
C129        C130   1.400       .  A
C129        H132   1.085       .  S
C130        C133   1.437       .  S
C133        N135   1.156       .  T
C134        N136   1.155       .  T
C137        C138   1.413       .  A
C137        C142   1.424       .  A
C138        C943   1.407   1_454  A
C138        H143   1.079   1_554  S
C139        C140   1.408       .  A
C139        C942   1.407       .  A
C139        C146   1.442       .  S
C140        C409   1.399       .  A
C141        C408   1.399   1_554  A
C141        C678   1.395       .  A
C141        H144   1.086       .  S
C142        C677   1.395   1_455  A
C142        C145   1.440       .  S
C145        N147   1.157       .  T
C146        N148   1.157       .  T
C149        C154   1.421       .  A
C149        C418   1.408       .  A
C150        C151   1.400       .  A
C150        C417   1.408   1_554  A
C150        H155   1.085       .  S
C151        C152   1.420       .  A
C151        C158   1.443       .  S
C152        C153   1.410       .  A
C153        C422   1.406   1_554  A
C153        H156   1.083       .  S
C154        C421   1.406       .  A
C154        C157   1.443       .  S
C157        N159   1.158       .  T
C158        N160   1.157       .  T
C161        C162   1.406       .  A
C161        C166   1.415       .  A
C162        C163   1.398       .  A
C162        H167   1.082       .  S
C163        C164   1.422       .  A
C163        C170   1.442       .  S
C164        C165   1.412       .  A
C165        C166   1.402       .  A
C165        H168   1.079   1_545  S
C166        C169   1.440   1_545  S
C169        N171   1.156       .  T
C170        N172   1.158       .  T
C173        C178   1.416       .  A
C173        C710   1.411       .  A
C174        C175   1.402       .  A
C174        C709   1.411   1_455  A
C174        H179   1.081       .  S
C175        C176   1.418       .  A
C175        C182   1.445       .  S
C176        C713   1.410   1_455  A
C177        C178   1.400       .  A
C177        C712   1.410       .  A
C177        H180   1.083       .  S
C178        C181   1.445       .  S
C181        N183   1.157       .  T
C182        N184   1.158       .  T
C185        C186   1.406       .  A
C185        C190   1.412       .  A
C186        C187   1.403       .  A
C186        H191   1.084       .  S
C187        C188   1.409       .  A
C187        C194   1.444       .  S
C188        C189   1.402       .  A
C189        C190   1.397       .  A
C189        H192   1.085       .  S
C190        C193   1.445       .  S
C193        N731   1.158       .  T
C194        N196   1.157       .  T
N195        C729   1.158       .  T
C197        C198   1.405       .  A
C197        C202   1.406       .  A
C198        C199   1.405       .  A
C198        H203   1.085       .  S
C199        C200   1.413       .  A
C199        C206   1.444       .  S
C200        C201   1.403       .  A
C201        C202   1.395       .  A
C201        H204   1.081       .  S
C202        C205   1.443       .  S
C205        N743   1.157       .  T
C206        N208   1.157       .  T
N207        C741   1.157   1_455  T
C209        C210   1.403       .  A
C209        C482   1.414       .  A
C210       C1015   1.408       .  A
C210        H215   1.081       .  S
C211        C212   1.417   1_556  A
C211       C1014   1.408   1_455  A
C211        C218   1.443       .  S
C212        C213   1.399       .  A
C213        C750   1.397   1_455  A
C213        H216   1.075       .  S
C214        C477   1.414   1_554  A
C214        C749   1.397       .  A
C214        C217   1.445       .  S
C217        N219   1.157       .  T
C218        N220   1.157       .  T
C221        C226   1.420       .  A
C221        C490   1.413       .  A
C222        C223   1.407       .  A
C222        C489   1.413   1_554  A
C222        H227   1.083       .  S
C223        C224   1.417       .  A
C223        C230   1.442       .  S
C224        C225   1.411       .  A
C225        C494   1.400   1_554  A
C225        H228   1.084       .  S
C226        C493   1.400       .  A
C226        C229   1.443       .  S
C229        N231   1.158       .  T
C230        N232   1.158       .  T
C233        C234   1.412       .  A
C233        C238   1.420       .  A
C234        C235   1.401       .  A
C234        H239   1.078       .  S
C235        C236   1.411       .  A
C235        C242   1.440       .  S
C236        C237   1.406       .  A
C237        C238   1.397       .  A
C237        H240   1.082       .  S
C238        C241   1.442       .  S
C241        N243   1.158       .  T
C242        N244   1.156       .  T
C245        C246   1.407       .  A
C245        C786   1.419   1_455  A
C246        C247   1.398       .  A
C246        H251   1.081       .  S
C247        C784   1.419   1_455  A
C247        C254   1.443       .  S
C248        C249   1.408       .  A
C248        C783   1.419       .  A
C249        C250   1.400       .  A
C249        H252   1.082       .  S
C250        C781   1.419       .  A
C250        C253   1.442       .  S
C253        N255   1.156       .  T
C254        N256   1.157       .  T
C257        C258   1.404       .  A
C257        C262   1.416       .  A
C258        C259   1.398       .  A
C258        H263   1.082       .  S
C259        C260   1.425       .  A
C259        C266   1.440       .  S
C260        C261   1.411       .  A
C261        C262   1.404       .  A
C261        H264   1.083       .  S
C262        C265   1.439       .  S
C265        N267   1.156       .  T
C266        N268   1.158       .  T
C269        C270   1.544       .  S
C269        C275   1.532       .  S
C269        C273   1.530       .  S
C269        C513   1.537       .  S
C270        H277   1.080       .  S
C270        C271   1.372       .  D
C271        C272   1.542       .  S
C271        C525   1.509       .  S
C272        C276   1.542       .  S
C272        C274   1.550       .  S
C272        H278   1.101       .  S
C273        H279   1.085       .  S
C273        C274   1.371       .  D
C274        C504   1.502       .  S
C275        H280   1.085   1_455  S
C275        C276   1.360       .  D
C276        C392   1.472       .  S
C281        C282   1.537       .  S
C281        C287   1.534       .  S
C281        C285   1.549       .  S
C281        C492   1.545       .  S
C282        H289   1.085       .  S
C282        C283   1.360       .  D
C283        C284   1.547       .  S
C283        C480   1.499       .  S
C284        C288   1.536       .  S
C284        C286   1.550       .  S
C284        H290   1.093       .  S
C285        H291   1.080       .  S
C285        C286   1.386       .  D
C286        C528   1.522       .  S
C287        H292   1.086       .  S
C287        C288   1.360       .  D
C288        C378   1.481       .  S
C293        C294   1.535       .  S
C293        C299   1.524       .  S
C293        C297   1.552       .  S
C293        C516   1.534       .  S
C294        H301   1.086       .  S
C294        C295   1.359       .  D
C295        C296   1.532       .  S
C295        C465   1.478       .  S
C296        C300   1.539       .  S
C296        C298   1.547       .  S
C296        H302   1.096       .  S
C297        H303   1.077       .  S
C297        C298   1.383       .  D
C298        C501   1.517       .  S
C299        H304   1.087       .  S
C299        C300   1.360       .  D
C300        C389   1.473       .  S
C305        C306   1.538       .  S
C305        C311   1.540       .  S
C305        C309   1.546       .  S
C305        C489   1.545       .  S
C306        C307   1.365       .  D
C307        C308   1.537       .  S
C307        C477   1.493       .  S
C308        C312   1.544       .  S
C308        C310   1.541       .  S
C308        H314   1.111       .  S
C309        H315   1.085       .  S
C309        C310   1.369       .  D
C310        C468   1.485       .  S
C311        H316   1.082       .  S
C311        C312   1.366       .  D
C312        C375   1.486       .  S
C317        C318   1.551       .  S
C317        C323   1.536       .  S
C317        C321   1.534       .  S
C317        C444   1.538       .  S
C318        H325   1.079       .  S
C318        C319   1.381       .  D
C319        C320   1.545       .  S
C319        C432   1.519       .  S
C320        C324   1.535       .  S
C320        C322   1.531       .  S
C320        H326   1.093       .  S
C321        H327   1.086       .  S
C321        C322   1.362       .  D
C322        C453   1.484       .  S
C323        H328   1.085   1_455  S
C323        C324   1.359       .  D
C324        C390   1.472       .  S
C329        C330   1.543       .  S
C329        C335   1.539       .  S
C329        C333   1.543       .  S
C329        C420   1.544       .  S
C330        H337   1.085       .  S
C330        C331   1.366       .  D
C331        C332   1.539       .  S
C331        C456   1.478       .  S
C332        C336   1.532       .  S
C332        C334   1.542       .  S
C332        H338   1.103       .  S
C333        H339   1.085       .  S
C333        C334   1.377       .  D
C334        C405   1.512       .  S
C335        H340   1.083       .  S
C335        C336   1.359       .  D
C336        C376   1.476       .  S
C341        C342   1.542       .  S
C341        C347   1.535       .  S
C341        C345   1.531       .  S
C341        C441   1.538       .  S
C342        H349   1.084       .  S
C342        C343   1.375       .  D
C343        C344   1.548       .  S
C343        C429   1.505       .  S
C344        C348   1.544       .  S
C344        C346   1.540       .  S
C344        H350   1.104       .  S
C345        H351   1.086       .  S
C345        C346   1.365       .  D
C346        C396   1.493       .  S
C347        H352   1.084       .  S
C347        C348   1.363       .  D
C348        C391   1.474       .  S
C353        C354   1.543       .  S
C353        C359   1.527       .  S
C353        C357   1.539       .  S
C353        C417   1.543       .  S
C354        H361   1.081       .  S
C354        C355   1.371       .  D
C355        C356   1.541       .  S
C355        C393   1.497       .  S
C356        C360   1.543       .  S
C356        C358   1.543       .  S
C356        H362   1.107       .  S
C357        C358   1.369       .  D
C358        C408   1.491       .  S
C359        H364   1.086       .  S
C359        C360   1.364       .  D
C360        C377   1.478       .  S
O365        V373   1.900       .  S
O365        C375   1.266       .  A
O366        V373   1.902       .  S
O366        C376   1.264       .  A
O367        V373   1.893       .  S
O367        C377   1.263       .  A
O368        V373   1.902       .  S
O368        C378   1.263       .  A
O369        V374   1.907       .  S
O369        C378   1.267       .  A
O370        V374   1.909       .  S
O370        C377   1.265       .  A
O371        V374   1.899       .  S
O371        C376   1.264       .  A
O372        V374   1.913       .  S
O372        C375   1.266       .  A
V373        V374   2.087       .  T
O379        C389   1.263       .  A
O380        V387   1.895       .  S
O380        C926   1.264   1_565  A
O381        C391   1.261   1_565  A
O382        V387   1.897       .  S
O382        C928   1.264       .  A
O383        V388   1.895       .  S
O383        C392   1.260       .  A
O384        C927   1.264   1_465  A
O385        V388   1.898       .  S
O385        C390   1.263   1_565  A
O386        C925   1.264   1_455  A
V387        V924   2.087       .  T
V388        V923   2.087   1_455  T
C389        O922   1.264       .  A
C390        O916   1.264   1_445  A
C391        O920   1.264   1_545  A
C392        O918   1.264   1_455  A
C393        C394   1.405       .  A
C393        C398   1.416       .  A
C394        C395   1.399       .  A
C394        H399   1.085       .  S
C395        C396   1.412       .  A
C395        C402   1.438       .  S
C396        C397   1.403       .  A
C397        C398   1.400       .  A
C397        H400   1.085       .  S
C398        C401   1.437       .  S
C401        N403   1.156       .  T
C402        N404   1.155       .  T
C405        C406   1.413       .  A
C405        C410   1.424       .  A
C406        C675   1.407   1_455  A
C406        H411   1.079       .  S
C407        C674   1.407   1_556  A
C407        C408   1.408       .  A
C407        C414   1.442       .  S
C409        C946   1.395       .  A
C409        H412   1.086       .  S
C410        C945   1.395   1_455  A
C410        C413   1.440       .  S
C413        N415   1.157       .  T
C414        N416   1.157       .  T
C417        C422   1.421       .  A
C418        C419   1.400       .  A
C418        H423   1.085       .  S
C419        C420   1.420       .  A
C419        C426   1.443       .  S
C420        C421   1.410       .  A
C421        H424   1.083       .  S
C422        C425   1.443       .  S
C425        N427   1.158       .  T
C426        N428   1.157       .  T
C429        C430   1.406       .  A
C429        C434   1.415       .  A
C430        C431   1.398       .  A
C430        H435   1.082       .  S
C431        C432   1.422       .  A
C431        C438   1.442       .  S
C432        C433   1.412       .  A
C433        C434   1.402       .  A
C433        H436   1.079   1_545  S
C434        C437   1.440   1_545  S
C437        N439   1.156       .  T
C438        N440   1.158       .  T
C441        C978   1.411       .  A
C441        C446   1.416       .  A
C442        C977   1.411   1_455  A
C442        C443   1.402       .  A
C442        H447   1.081       .  S
C443        C444   1.418       .  A
C443        C450   1.445       .  S
C444        C981   1.410   1_455  A
C445        C980   1.410       .  A
C445        C446   1.400       .  A
C445        H448   1.083       .  S
C446        C449   1.445       .  S
C449        N451   1.157       .  T
C450        N452   1.158       .  T
C453        C454   1.406       .  A
C453        C458   1.412       .  A
C454        C455   1.403       .  A
C454        H459   1.084       .  S
C455        C456   1.409       .  A
C455        C462   1.444       .  S
C456        C457   1.402       .  A
C457        C458   1.397       .  A
C457        H460   1.085       .  S
C458        C461   1.445       .  S
C461        N999   1.158       .  T
C462        N464   1.157       .  T
N463        C997   1.158       .  T
C465        C466   1.405       .  A
C465        C470   1.406       .  A
C466        C467   1.405       .  A
C466        H471   1.085       .  S
C467        C468   1.413       .  A
C467        C474   1.444       .  S
C468        C469   1.403       .  A
C469        C470   1.395       .  A
C469        H472   1.081       .  S
C470        C473   1.443       .  S
C473       N1011   1.157       .  T
C474        N476   1.157       .  T
N475       C1009   1.157   1_455  T
C477        C478   1.403       .  A
C478        C747   1.408       .  A
C478        H483   1.081       .  S
C479        C746   1.408   1_455  A
C479        C480   1.417       .  A
C479        C486   1.443       .  S
C480        C481   1.399       .  A
C481       C1018   1.397   1_455  A
C481        H484   1.076       .  S
C482       C1017   1.397       .  A
C482        C485   1.445       .  S
C485        N487   1.157       .  T
C486        N488   1.157       .  T
C489        C494   1.420       .  A
C490        C491   1.407       .  A
C490        H495   1.083       .  S
C491        C492   1.417       .  A
C491        C498   1.442       .  S
C492        C493   1.411       .  A
C493        H496   1.084       .  S
C494        C497   1.443       .  S
C497        N499   1.158       .  T
C498        N500   1.158       .  T
C501        C502   1.412       .  A
C501        C506   1.420       .  A
C502        C503   1.401       .  A
C502        H507   1.078       .  S
C503        C504   1.411       .  A
C503        C510   1.440       .  S
C504        C505   1.406       .  A
C505        C506   1.397       .  A
C505        H508   1.082       .  S
C506        C509   1.442       .  S
C509        N511   1.158       .  T
C510        N512   1.156       .  T
C513        C514   1.407       .  A
C513       C1054   1.419   1_455  A
C514        C515   1.398       .  A
C514        H519   1.081       .  S
C515       C1052   1.419   1_455  A
C515        C522   1.443       .  S
C516       C1051   1.419       .  A
C516        C517   1.408       .  A
C517        C518   1.400       .  A
C517        H520   1.082       .  S
C518       C1049   1.419       .  A
C518        C521   1.442       .  S
C521        N523   1.156       .  T
C522        N524   1.157       .  T
C525        C526   1.404       .  A
C525        C530   1.416       .  A
C526        C527   1.397       .  A
C526        H531   1.082       .  S
C527        C528   1.425       .  A
C527        C534   1.440       .  S
C528        C529   1.411       .  A
C529        C530   1.404       .  A
C529        H532   1.083       .  S
C530        C533   1.439       .  S
C533        N535   1.156       .  T
C534        N536   1.158       .  T
C537        C538   1.544       .  S
C537        C543   1.532       .  S
C537        C541   1.530       .  S
C537        C781   1.537       .  S
C538        H545   1.080       .  S
C538        C539   1.372       .  D
C539        C540   1.542       .  S
C539        C793   1.509       .  S
C540        C544   1.542       .  S
C540        C542   1.550       .  S
C540        H546   1.101       .  S
C541        H547   1.085       .  S
C541        C542   1.371       .  D
C542        C772   1.502       .  S
C543        H548   1.085       .  S
C543        C544   1.360       .  D
C544        C660   1.472       .  S
C549        C550   1.537       .  S
C549        C555   1.534       .  S
C549        C553   1.549       .  S
C549        C760   1.545       .  S
C550        H557   1.085   1_554  S
C550        C551   1.360       .  D
C551        C552   1.547       .  S
C551        C748   1.499       .  S
C552        C556   1.536       .  S
C552        C554   1.550       .  S
C552        H558   1.093       .  S
C553        H559   1.080       .  S
C553        C554   1.386       .  D
C554        C796   1.522       .  S
C555        H560   1.086       .  S
C555        C556   1.360       .  D
C556        C646   1.481       .  S
C561        C562   1.535       .  S
C561        C567   1.524       .  S
C561        C565   1.552       .  S
C561        C784   1.534       .  S
C562        H569   1.086       .  S
C562        C563   1.359       .  D
C563        C564   1.532       .  S
C563        C733   1.478       .  S
C564        C568   1.539       .  S
C564        C566   1.547       .  S
C564        H570   1.096       .  S
C565        H571   1.077       .  S
C565        C566   1.383       .  D
C566        C769   1.517       .  S
C567        H572   1.087   1_655  S
C567        C568   1.360       .  D
C568        C657   1.473       .  S
C573        C574   1.538       .  S
C573        C579   1.540       .  S
C573        C577   1.546       .  S
C573        C757   1.545       .  S
C574        H849   1.087       .  S
C574        C575   1.365       .  D
C575        C576   1.537       .  S
C575        C745   1.493       .  S
C576        C580   1.544       .  S
C576        C578   1.541       .  S
C576        H582   1.111       .  S
C577        H583   1.085       .  S
C577        C578   1.369       .  D
C578        C736   1.485       .  S
C579        H584   1.082       .  S
C579        C580   1.366       .  D
C580        C643   1.486       .  S
H581        C842   1.086   1_554  S
C585        C586   1.551       .  S
C585        C591   1.536       .  S
C585        C589   1.534       .  S
C585        C712   1.538       .  S
C586        H593   1.079       .  S
C586        C587   1.381       .  D
C587        C588   1.545       .  S
C587        C700   1.519       .  S
C588        C592   1.535       .  S
C588        C590   1.531       .  S
C588        H594   1.093       .  S
C589        H595   1.086       .  S
C589        C590   1.362       .  D
C590        C721   1.484       .  S
C591        H596   1.085       .  S
C591        C592   1.359       .  D
C592        C658   1.472       .  S
C597        C598   1.543       .  S
C597        C603   1.539       .  S
C597        C601   1.543       .  S
C597        C688   1.544       .  S
C598        H605   1.085       .  S
C598        C599   1.366       .  D
C599        C600   1.539       .  S
C599        C724   1.478       .  S
C600        C604   1.532       .  S
C600        C602   1.542       .  S
C600        H606   1.103       .  S
C601        H607   1.085       .  S
C601        C602   1.377       .  D
C602        C673   1.512       .  S
C603        H608   1.083       .  S
C603        C604   1.359       .  D
C604        C644   1.476       .  S
C609        C610   1.542       .  S
C609        C615   1.535       .  S
C609        C613   1.531       .  S
C609        C709   1.538       .  S
C610        H617   1.084       .  S
C610        C611   1.375       .  D
C611        C612   1.548       .  S
C611        C697   1.505       .  S
C612        C616   1.544       .  S
C612        C614   1.540       .  S
C612        H618   1.104       .  S
C613        H619   1.086       .  S
C613        C614   1.365       .  D
C614        C664   1.493       .  S
C615        H620   1.084   1_655  S
C615        C616   1.363       .  D
C616        C659   1.474       .  S
C621        C622   1.543       .  S
C621        C627   1.527       .  S
C621        C625   1.539       .  S
C621        C685   1.543       .  S
C622        H629   1.081       .  S
C622        C623   1.371       .  D
C623        C624   1.541       .  S
C623        C661   1.497       .  S
C624        C628   1.543       .  S
C624        C626   1.543       .  S
C624        H630   1.107       .  S
C625        H899   1.087       .  S
C625        C626   1.369       .  D
C626        C676   1.491       .  S
C627        H632   1.086       .  S
C627        C628   1.364       .  D
C628        C645   1.478       .  S
H631        C893   1.087   1_554  S
O633        V641   1.900       .  S
O633        C643   1.266       .  A
O634        V641   1.902       .  S
O634        C644   1.264       .  A
O635        V641   1.893       .  S
O635        C645   1.263       .  A
O636        V641   1.902       .  S
O636        C646   1.263       .  A
O637        V642   1.907       .  S
O637        C646   1.267       .  A
O638        V642   1.909       .  S
O638        C645   1.265       .  A
O639        V642   1.899       .  S
O639        C644   1.264       .  A
O640        V642   1.913       .  S
O640        C643   1.266       .  A
V641        V642   2.087       .  T
O647        V923   1.901       .  S
O647        C657   1.263       .  A
O648        V655   1.895       .  S
O649        V923   1.900       .  S
O649        C659   1.261   1_565  A
O650        V655   1.897       .  S
O651        V656   1.895       .  S
O651        C660   1.260       .  A
O652        V924   1.892       .  S
O653        V656   1.898       .  S
O653        C658   1.263   1_565  A
O654        V924   1.893       .  S
V655        O915   1.901   1_554  S
V655        O917   1.900   1_554  S
V656        O920   1.892   1_554  S
V656        O922   1.893   1_554  S
C661        C662   1.405       .  A
C661        C666   1.416       .  A
C662        C663   1.399       .  A
C662        H667   1.085       .  S
C663        C664   1.412       .  A
C663        C670   1.438       .  S
C664        C665   1.403       .  A
C665        C666   1.400       .  A
C665        H668   1.085       .  S
C666        C669   1.437       .  S
C669        N671   1.156       .  T
C670        N672   1.155       .  T
C673        C674   1.413       .  A
C673        C678   1.424       .  A
C674        H679   1.079   1_554  S
C675        C676   1.408       .  A
C675        C682   1.442       .  S
C676        C945   1.399       .  A
C677        C944   1.399   1_554  A
C677        H680   1.085       .  S
C678        C681   1.440       .  S
C681        N683   1.157       .  T
C682        N684   1.157       .  T
C685        C954   1.408       .  A
C685        C690   1.421       .  A
C686        C953   1.408   1_554  A
C686        C687   1.400       .  A
C686        H691   1.085       .  S
C687        C688   1.420       .  A
C687        C694   1.443       .  S
C688        C689   1.410       .  A
C689        C958   1.406   1_554  A
C689        H692   1.083       .  S
C690        C957   1.406       .  A
C690        C693   1.443       .  S
C693        N695   1.158       .  T
C694        N696   1.157       .  T
C697        C698   1.406       .  A
C697        C702   1.415       .  A
C698        C699   1.398       .  A
C698        H703   1.082       .  S
C699        C700   1.422       .  A
C699        C706   1.442       .  S
C700        C701   1.412       .  A
C701        C702   1.402       .  A
C701        H704   1.079   1_545  S
C702        C705   1.440   1_545  S
C705        N707   1.156       .  T
C706        N708   1.158       .  T
C709        C714   1.416       .  A
C710        C711   1.402       .  A
C710        H715   1.081       .  S
C711        C712   1.418       .  A
C711        C718   1.445       .  S
C713        C714   1.400       .  A
C713        H716   1.083       .  S
C714        C717   1.445       .  S
C717        N719   1.157       .  T
C718        N720   1.158       .  T
C721        C722   1.406       .  A
C721        C726   1.412       .  A
C722        C723   1.403       .  A
C722        H727   1.084       .  S
C723        C724   1.409       .  A
C723        C730   1.444       .  S
C724        C725   1.402       .  A
C725        C726   1.397       .  A
C725        H728   1.085       .  S
C726        C729   1.445       .  S
C730        N732   1.157       .  T
C733        C734   1.405       .  A
C733        C738   1.406       .  A
C734        C735   1.405       .  A
C734        H739   1.085       .  S
C735        C736   1.413       .  A
C735        C742   1.444       .  S
C736        C737   1.403       .  A
C737        C738   1.395       .  A
C737        H740   1.081       .  S
C738        C741   1.443       .  S
C742        N744   1.157       .  T
C745        C746   1.403       .  A
C745       C1018   1.414       .  A
C746        H751   1.081       .  S
C747        C748   1.417   1_556  A
C747        C754   1.443       .  S
C748        C749   1.399       .  A
C749        H752   1.076       .  S
C750       C1013   1.414   1_554  A
C750        C753   1.445       .  S
C753        N755   1.157       .  T
C754        N756   1.157       .  T
C757       C1026   1.413       .  A
C757        C762   1.420       .  A
C758       C1025   1.413   1_554  A
C758        C759   1.407       .  A
C758        H763   1.083       .  S
C759        C760   1.417       .  A
C759        C766   1.442       .  S
C760        C761   1.411       .  A
C761       C1030   1.400   1_554  A
C761        H764   1.085       .  S
C762       C1029   1.400       .  A
C762        C765   1.443       .  S
C765        N767   1.158       .  T
C766        N768   1.158       .  T
C769        C770   1.412       .  A
C769        C774   1.420       .  A
C770        C771   1.401       .  A
C770        H775   1.078       .  S
C771        C772   1.411       .  A
C771        C778   1.440       .  S
C772        C773   1.406       .  A
C773        C774   1.397       .  A
C773        H776   1.082       .  S
C774        C777   1.442       .  S
C777        N779   1.158       .  T
C778        N780   1.156       .  T
C781        C782   1.407       .  A
C782        C783   1.398       .  A
C782        H787   1.081       .  S
C783        C790   1.443       .  S
C784        C785   1.408       .  A
C785        C786   1.400       .  A
C785        H788   1.082       .  S
C786        C789   1.442       .  S
C789        N791   1.156       .  T
C790        N792   1.157       .  T
C793        C794   1.404       .  A
C793        C798   1.416       .  A
C794        C795   1.397       .  A
C794        H799   1.082       .  S
C795        C796   1.425       .  A
C795        C802   1.440       .  S
C796        C797   1.411       .  A
C797        C798   1.404       .  A
C797        H800   1.083       .  S
C798        C801   1.439       .  S
C801        N803   1.156       .  T
C802        N804   1.158       .  T
C805        C806   1.544       .  S
C805        C811   1.532       .  S
C805        C809   1.530       .  S
C805       C1049   1.537       .  S
C806        H813   1.080       .  S
C806        C807   1.372       .  D
C807        C808   1.542       .  S
C807       C1061   1.509       .  S
C808        C812   1.542       .  S
C808        C810   1.550       .  S
C808        H814   1.101       .  S
C809        H815   1.085       .  S
C809        C810   1.371       .  D
C810       C1040   1.502       .  S
C811        H816   1.085       .  S
C811        C812   1.360       .  D
C812        C928   1.472       .  S
C817        C818   1.537       .  S
C817        C823   1.534       .  S
C817        C821   1.549       .  S
C817       C1028   1.545       .  S
C818        H825   1.085       .  S
C818        C819   1.360       .  D
C819        C820   1.547       .  S
C819       C1016   1.499       .  S
C820        C824   1.536       .  S
C820        C822   1.550       .  S
C820        H826   1.093       .  S
C821        H827   1.080       .  S
C821        C822   1.386       .  D
C822       C1064   1.522       .  S
C823        H828   1.086       .  S
C823        C824   1.360       .  D
C824        C914   1.481       .  S
C829        C830   1.535       .  S
C829        C835   1.524       .  S
C829        C833   1.552       .  S
C829       C1052   1.534       .  S
C830        H837   1.086       .  S
C830        C831   1.359       .  D
C831        C832   1.532       .  S
C831       C1001   1.478       .  S
C832        C836   1.539       .  S
C832        C834   1.547       .  S
C832        H838   1.096       .  S
C833        H839   1.077       .  S
C833        C834   1.383       .  D
C834       C1037   1.517       .  S
C835        H840   1.087   1_655  S
C835        C836   1.360       .  D
C836        C925   1.473       .  S
C841        C842   1.538       .  S
C841        C847   1.540       .  S
C841        C845   1.546       .  S
C841       C1025   1.545       .  S
C842        C843   1.365       .  D
C843        C844   1.537       .  S
C843       C1013   1.493       .  S
C844        C848   1.544       .  S
C844        C846   1.541       .  S
C844        H850   1.111       .  S
C845        H851   1.085       .  S
C845        C846   1.369       .  D
C846       C1004   1.485       .  S
C847        H852   1.082       .  S
C847        C848   1.366       .  D
C848        C911   1.486       .  S
C853        C854   1.551       .  S
C853        C859   1.536       .  S
C853        C857   1.534       .  S
C853        C980   1.538       .  S
C854        H861   1.079       .  S
C854        C855   1.381       .  D
C855        C856   1.545       .  S
C855        C968   1.519       .  S
C856        C860   1.535       .  S
C856        C858   1.531       .  S
C856        H862   1.093       .  S
C857        H863   1.086       .  S
C857        C858   1.362       .  D
C858        C989   1.484       .  S
C859        H864   1.085       .  S
C859        C860   1.359       .  D
C860        C926   1.472       .  S
C865        C866   1.543       .  S
C865        C871   1.539       .  S
C865        C869   1.543       .  S
C865        C956   1.544       .  S
C866        H873   1.085       .  S
C866        C867   1.366       .  D
C867        C868   1.539       .  S
C867        C992   1.478       .  S
C868        C872   1.532       .  S
C868        C870   1.542       .  S
C868        H874   1.103       .  S
C869        H875   1.085       .  S
C869        C870   1.377       .  D
C870        C941   1.512       .  S
C871        H876   1.083       .  S
C871        C872   1.359       .  D
C872        C912   1.476       .  S
C877        C878   1.542       .  S
C877        C883   1.535       .  S
C877        C881   1.531       .  S
C877        C977   1.538       .  S
C878        H885   1.084       .  S
C878        C879   1.375       .  D
C879        C880   1.548       .  S
C879        C965   1.505       .  S
C880        C884   1.544       .  S
C880        C882   1.540       .  S
C880        H886   1.104       .  S
C881        H887   1.086       .  S
C881        C882   1.365       .  D
C882        C932   1.493       .  S
C883        H888   1.084   1_655  S
C883        C884   1.363       .  D
C884        C927   1.474       .  S
C889        C890   1.543       .  S
C889        C895   1.527       .  S
C889        C893   1.539       .  S
C889        C953   1.543       .  S
C890        H897   1.081       .  S
C890        C891   1.371       .  D
C891        C892   1.541       .  S
C891        C929   1.497       .  S
C892        C896   1.543       .  S
C892        C894   1.543       .  S
C892        H898   1.107       .  S
C893        C894   1.369       .  D
C894        C944   1.491       .  S
C895        H900   1.086       .  S
C895        C896   1.364       .  D
C896        C913   1.478       .  S
O901        V909   1.900       .  S
O901        C911   1.266       .  A
O902        V909   1.902       .  S
O902        C912   1.264       .  A
O903        V909   1.893       .  S
O903        C913   1.263       .  A
O904        V909   1.902       .  S
O904        C914   1.263       .  A
O905        V910   1.907       .  S
O905        C914   1.267       .  A
O906        V910   1.909       .  S
O906        C913   1.265       .  A
O907        V910   1.899       .  S
O907        C912   1.264       .  A
O908        V910   1.913       .  S
O908        C911   1.266       .  A
V909        V910   2.087       .  T
O915        C925   1.263       .  A
O916        V923   1.895       .  S
O917        C927   1.261   1_565  A
O918        V923   1.897       .  S
O919        V924   1.895       .  S
O919        C928   1.260       .  A
O921        V924   1.898       .  S
O921        C926   1.263   1_565  A
C929        C930   1.405       .  A
C929        C934   1.416       .  A
C930        C931   1.399       .  A
C930        H935   1.085       .  S
C931        C932   1.412       .  A
C931        C938   1.438       .  S
C932        C933   1.403       .  A
C933        C934   1.400       .  A
C933        H936   1.085       .  S
C934        C937   1.437       .  S
C937        N939   1.156       .  T
C938        N940   1.155       .  T
C941        C942   1.413       .  A
C941        C946   1.424       .  A
C942        H947   1.079       .  S
C943        C944   1.408       .  A
C943        C950   1.442       .  S
C945        H948   1.086       .  S
C946        C949   1.440       .  S
C949        N951   1.157       .  T
C950        N952   1.157       .  T
C953        C958   1.421       .  A
C954        C955   1.400       .  A
C954        H959   1.085       .  S
C955        C956   1.420       .  A
C955        C962   1.443       .  S
C956        C957   1.410       .  A
C957        H960   1.083       .  S
C958        C961   1.443       .  S
C961        N963   1.158       .  T
C962        N964   1.157       .  T
C965        C966   1.406       .  A
C965        C970   1.415       .  A
C966        C967   1.398       .  A
C966        H971   1.082       .  S
C967        C968   1.422       .  A
C967        C974   1.442       .  S
C968        C969   1.412       .  A
C969        C970   1.402       .  A
C969        H972   1.079   1_545  S
C970        C973   1.440   1_545  S
C973        N975   1.156       .  T
C974        N976   1.158       .  T
C977        C982   1.416       .  A
C978        C979   1.402       .  A
C978        H983   1.081       .  S
C979        C980   1.418       .  A
C979        C986   1.445       .  S
C981        C982   1.400       .  A
C981        H984   1.083       .  S
C982        C985   1.445       .  S
C985        N987   1.157       .  T
C986        N988   1.158       .  T
C989        C990   1.406       .  A
C989        C994   1.412       .  A
C990        C991   1.403       .  A
C990        H995   1.084       .  S
C991        C992   1.409       .  A
C991        C998   1.444       .  S
C992        C993   1.402       .  A
C993        C994   1.397       .  A
C993        H996   1.085       .  S
C994        C997   1.445       .  S
C998       N1000   1.157       .  T
C1001      C1002   1.405       .  A
C1001      C1006   1.406       .  A
C1002      C1003   1.405       .  A
C1002      H1007   1.085       .  S
C1003      C1004   1.413       .  A
C1003      C1010   1.444       .  S
C1004      C1005   1.403       .  A
C1005      C1006   1.395       .  A
C1005      H1008   1.081       .  S
C1006      C1009   1.443       .  S
C1010      N1012   1.157       .  T
C1013      C1014   1.403       .  A
C1014      H1019   1.081       .  S
C1015      C1016   1.417       .  A
C1015      C1022   1.443       .  S
C1016      C1017   1.399       .  A
C1017      H1020   1.076       .  S
C1018      C1021   1.445       .  S
C1021      N1023   1.157       .  T
C1022      N1024   1.157       .  T
C1025      C1030   1.420       .  A
C1026      C1027   1.407       .  A
C1026      H1031   1.083       .  S
C1027      C1028   1.417       .  A
C1027      C1034   1.442       .  S
C1028      C1029   1.411       .  A
C1029      H1032   1.085       .  S
C1030      C1033   1.443       .  S
C1033      N1035   1.158       .  T
C1034      N1036   1.158       .  T
C1037      C1038   1.412       .  A
C1037      C1042   1.420       .  A
C1038      C1039   1.401       .  A
C1038      H1043   1.078       .  S
C1039      C1040   1.411       .  A
C1039      C1046   1.440       .  S
C1040      C1041   1.406       .  A
C1041      C1042   1.397       .  A
C1041      H1044   1.082       .  S
C1042      C1045   1.442       .  S
C1045      N1047   1.158       .  T
C1046      N1048   1.156       .  T
C1049      C1050   1.407       .  A
C1050      C1051   1.398       .  A
C1050      H1055   1.081       .  S
C1051      C1058   1.443       .  S
C1052      C1053   1.408       .  A
C1053      C1054   1.400       .  A
C1053      H1056   1.082       .  S
C1054      C1057   1.442       .  S
C1057      N1059   1.156       .  T
C1058      N1060   1.157       .  T
C1061      C1062   1.404       .  A
C1061      C1066   1.416       .  A
C1062      C1063   1.397       .  A
C1062      H1067   1.082       .  S
C1063      C1064   1.425       .  A
C1063      C1070   1.440       .  S
C1064      C1065   1.411       .  A
C1065      C1066   1.404       .  A
C1065      H1068   1.083       .  S
C1066      C1069   1.439       .  S
C1069      N1071   1.156       .  T
C1070      N1072   1.158       .  T
