geometry optimzed in LAMMPS
_audit_creation_date              2020-11-30 
_audit_creation_method            'lammps2cif' 
_symmetry_space_group_name_H-M    'P1' 
_symmetry_Int_Tables_number       1 
_symmetry_cell_setting            triclinic 
loop_ 
_symmetry_equiv_pos_as_xyz 
  x,y,z 
_cell_length_a                    35.68647158793283 
_cell_length_b                    35.85603393269687 
_cell_length_c                    35.7632886967787 
_cell_angle_alpha                 91.0696496440997 
_cell_angle_beta                  90.45692760724243 
_cell_angle_gamma                 90.52829798482422 
loop_ 
_atom_site_label 
_atom_site_type_symbol 
_atom_site_fract_x 
_atom_site_fract_y 
_atom_site_fract_z 
_atom_site_charge 
In1        In  0.12176982  0.12828963  0.37400235     1.36870
C2          C  0.05028530  0.11074503  0.35883499     0.79480
O3          O  0.12881793  0.08019914  0.41292722    -0.58960
O4          O  0.12412897  0.13589912  0.43494647    -0.49880
C5          C  0.19357562  0.11870280  0.35880363     0.72150
O6          O  0.16843972  0.09839664  0.34293013    -0.44730
C7          C  0.11887481  0.19751995  0.35238419     0.76850
O8          O  0.07658968  0.09665730  0.33956178    -0.56590
O9          O  0.12276750  0.18856208  0.38613162    -0.46680
O10         O  0.06135263  0.13170795  0.38549356    -0.53020
C11         C  0.12995033  0.10194087  0.44115825     0.87030
O12         O  0.18136595  0.14399452  0.38007800    -0.54920
O13         O  0.11595204  0.17071351  0.32900438    -0.58210
In14       In  0.10731096  0.37093681  0.36601367     1.36870
C15         C  0.11824595  0.37296004  0.43935204     0.79480
O16         O  0.07834312  0.42577433  0.37347136    -0.58960
O17         O  0.04634150  0.37509603  0.36552098    -0.49880
C18         C  0.11983712  0.38340303  0.29459840     0.72150
O19         O  0.14062208  0.39824931  0.32013779    -0.44730
C20         C  0.12752467  0.30151709  0.36063580     0.76850
O21         O  0.13953949  0.39207483  0.41832382    -0.56590
O22         O  0.09377613  0.31152735  0.35700108    -0.46680
O23         O  0.09307507  0.35408615  0.42249010    -0.53020
C24         C  0.04645726  0.41009958  0.37079985     0.87030
O25         O  0.09337355  0.36328826  0.30616789    -0.54920
O26         O  0.15138027  0.32741650  0.36659940    -0.58210
In27       In  0.12340686  0.12907569  0.60561880     1.36870
C28         C  0.05080269  0.12738674  0.62260649     0.79480
O29         O  0.12612720  0.17305181  0.65077788    -0.58960
O30         O  0.13245819  0.18833481  0.59341237    -0.49880
C31         C  0.19567068  0.11462076  0.61624095     0.72150
O32         O  0.17062237  0.09996405  0.63676764    -0.44730
C33         C  0.11624035  0.09588113  0.54030447     0.76850
O34         O  0.07330858  0.10501518  0.63838433    -0.56590
O35         O  0.12117434  0.13060070  0.54473402    -0.46680
O36         O  0.06574433  0.14860417  0.59918246    -0.53020
C37         C  0.13106107  0.19870280  0.62735387     0.87030
O38         O  0.18317938  0.13522691  0.59103748    -0.54920
O39         O  0.11404157  0.07726156  0.56993603    -0.58210
In40       In  0.11936845  0.37161602  0.61710575     1.36870
C41         C  0.12862136  0.38397405  0.69007891     0.79480
O42         O  0.08039865  0.42096952  0.61631436    -0.58960
O43         O  0.05926090  0.36491729  0.61207452    -0.49880
C44         C  0.13564361  0.38504775  0.54598604     0.72150
O45         O  0.15325993  0.40213285  0.57238817    -0.44730
C46         C  0.14112916  0.30205796  0.61831171     0.76850
O47         O  0.14886122  0.40080908  0.66637096    -0.56590
O48         O  0.10732301  0.31159399  0.62105872    -0.46680
O49         O  0.10478750  0.36169121  0.67605626    -0.53020
C50         C  0.05221964  0.39932274  0.61453128     0.87030
O51         O  0.11138011  0.36194823  0.55683681    -0.54920
O52         O  0.16457162  0.32844058  0.61472015    -0.58210
In53       In  0.88830818  0.36981417  0.36680987     1.36870
C54         C  0.87120536  0.38028909  0.29581563     0.79480
O55         O  0.92030165  0.42330513  0.36110462    -0.58960
O56         O  0.94899600  0.37071083  0.35913365    -0.49880
C57         C  0.88632096  0.37908575  0.44091785     0.72150
O58         O  0.86133405  0.39387548  0.42037009    -0.44730
C59         C  0.86319629  0.30131800  0.36658498     0.76850
O60         O  0.85433522  0.39819328  0.32184098    -0.56590
O61         O  0.89724541  0.30947550  0.36097355    -0.46680
O62         O  0.89456845  0.35662617  0.30679726    -0.53020
C63         C  0.95067332  0.40584579  0.35637763     0.87030
O64         O  0.91115835  0.36134776  0.42324356    -0.54920
O65         O  0.84156225  0.32856877  0.37263142    -0.58210
In66       In  0.86969334  0.12840684  0.37845000     1.36870
C67         C  0.94338910  0.12475200  0.37016754     0.79480
O68         O  0.87205511  0.17082807  0.33358241    -0.58960
O69         O  0.86021913  0.18785057  0.39013713    -0.49880
C70         C  0.79803205  0.11421996  0.36588194     0.72150
O71         O  0.82320713  0.09927671  0.34546273    -0.44730
C72         C  0.87427226  0.09489546  0.44196199     0.76850
O73         O  0.92198290  0.10428577  0.34941962    -0.56590
O74         O  0.87359682  0.12996443  0.43883435    -0.46680
O75         O  0.92668882  0.14585770  0.39298681    -0.53020
C76         C  0.86554977  0.19721193  0.35666790     0.87030
O77         O  0.81011938  0.13537710  0.39190168    -0.54920
O78         O  0.87112222  0.07589593  0.41186381    -0.58210
In79       In  0.87545638  0.12814392  0.60719204     1.36870
C80         C  0.94411135  0.11320936  0.63312452     0.79480
O81         O  0.87846463  0.08375399  0.56216730    -0.58960
O82         O  0.89835683  0.13905536  0.55188673    -0.49880
C83         C  0.80286292  0.11378607  0.61423800     0.72150
O84         O  0.82690222  0.10128167  0.63722254    -0.44730
C85         C  0.86444947  0.19741759  0.62766678     0.76850
O86         O  0.91750189  0.08967535  0.63647109    -0.56590
O87         O  0.86425062  0.18667418  0.59383383    -0.46680
O88         O  0.93387885  0.14421785  0.62083928    -0.53020
C89         C  0.89352706  0.10615412  0.53979658     0.87030
O90         O  0.81648444  0.13061959  0.58686167    -0.54920
O91         O  0.87073443  0.17250557  0.65148489    -0.58210
In92       In  0.88047423  0.36779500  0.61944835     1.36870
C93         C  0.86851623  0.38654840  0.54791633     0.79480
O94         O  0.92758206  0.41006226  0.62455555    -0.58960
O95         O  0.93849989  0.35134469  0.62399006    -0.49880
C96         C  0.86790015  0.38189952  0.69178488     0.72150
O97         O  0.85511593  0.40322304  0.66671317    -0.44730
C98         C  0.85456508  0.29934097  0.61617710     0.76850
O99         O  0.84730816  0.39839627  0.57388150    -0.56590
O100        O  0.88884104  0.30762863  0.61841672    -0.46680
O101        O  0.89524367  0.36692464  0.55928811    -0.53020
C102        C  0.95115508  0.38407367  0.62758536     0.87030
O103        O  0.88452673  0.35371690  0.67929537    -0.54920
O104        O  0.83238242  0.32657938  0.61418517    -0.58210
In105      In  0.37255454  0.11325221  0.36804377     1.36870
C106        C  0.44266408  0.13505374  0.38330917     0.79480
O107        O  0.36665363  0.07820297  0.41947503    -0.58960
O108        O  0.38369678  0.05334035  0.36762004    -0.49880
C109        C  0.30015848  0.12706286  0.37313330     0.72150
O110        O  0.32444923  0.14735003  0.39033184    -0.44730
C111        C  0.37359909  0.13026856  0.29737687     0.76850
O112        O  0.41544388  0.14924723  0.40125147    -0.56590
O113        O  0.36876369  0.09724664  0.30829223    -0.46680
O114        O  0.43318638  0.11073140  0.35906682    -0.53020
C115        C  0.37661665  0.04914849  0.40182040     0.87030
O116        O  0.31322408  0.10004674  0.35457364    -0.54920
O117        O  0.37763319  0.15496407  0.32285203    -0.58210
In118      In  0.38881507  0.12341350  0.12298685     1.36870
C119        C  0.38447938  0.05027938  0.11163239     0.79480
O120        O  0.41867682  0.13104447  0.06863432    -0.58960
O121        O  0.44979069  0.12942444  0.12032109    -0.49880
C122        C  0.36992121  0.19392427  0.11764261     0.72150
O123        O  0.35204563  0.16841372  0.09934205    -0.44730
C124        C  0.36852549  0.12029312  0.19261939     0.76850
O125        O  0.35943496  0.07114064  0.09762201    -0.56590
O126        O  0.40182944  0.12747633  0.18301024    -0.46680
O127        O  0.41013619  0.06724213  0.12967737    -0.53020
C128        C  0.45014329  0.13336386  0.08525314     0.87030
O129        O  0.39609981  0.18269950  0.13830635    -0.54920
O130        O  0.34516623  0.11447451  0.16625396    -0.58210
In131      In  0.60865760  0.12340855  0.11988140     1.36870
C132        C  0.62235226  0.19455620  0.10809615     0.79480
O133        O  0.57727396  0.11626019  0.06567486    -0.58960
O134        O  0.54735766  0.12360542  0.11724680    -0.49880
C135        C  0.61663527  0.05016693  0.11810018     0.72150
O136        O  0.63735474  0.07053994  0.09766969    -0.44730
C137        C  0.63466250  0.12910882  0.18779777     0.76850
O138        O  0.64178375  0.16913871  0.09222038    -0.56590
O139        O  0.60027181  0.13316123  0.17987487    -0.46680
O140        O  0.59610817  0.18299004  0.12839272    -0.53020
C141        C  0.54602863  0.11822489  0.08216016     0.87030
O142        O  0.59373509  0.06763954  0.13852175    -0.54920
O143        O  0.65619161  0.12227186  0.16052565    -0.58210
In144      In  0.61904360  0.11282783  0.35820841     1.36870
C145        C  0.54745944  0.13164650  0.36216370     0.79480
O146        O  0.62199296  0.15982389  0.31824613    -0.58960
O147        O  0.63145169  0.10365154  0.29882419    -0.49880
C148        C  0.69086897  0.12158531  0.37479810     0.72150
O149        O  0.66613907  0.14238562  0.38979594    -0.44730
C150        C  0.60456064  0.04679614  0.38382744     0.76850
O151        O  0.57041939  0.14354857  0.38728982    -0.56590
O152        O  0.60546420  0.05386784  0.34944308    -0.46680
O153        O  0.56184298  0.11239249  0.33634578    -0.53020
C154        C  0.62875531  0.13780838  0.29104678     0.87030
O155        O  0.67824692  0.09607469  0.35336558    -0.54920
O156        O  0.61266897  0.07357258  0.40607258    -0.58210
In157      In  0.62937306  0.88324844  0.36623753     1.36870
C158        C  0.55970863  0.86024211  0.38221837     0.79480
O159        O  0.63440332  0.92263546  0.41617961    -0.58960
O160        O  0.61554377  0.94225642  0.36337394    -0.49880
C161        C  0.70222312  0.87076614  0.37482633     0.72150
O162        O  0.67762649  0.85009682  0.38991082    -0.44730
C163        C  0.62973797  0.86614163  0.29481049     0.76850
O164        O  0.58749655  0.85016112  0.40198221    -0.56590
O165        O  0.63395444  0.89914275  0.30719390    -0.46680
O166        O  0.56843260  0.88035676  0.35510082    -0.53020
C167        C  0.62310222  0.94970972  0.39720868     0.87030
O168        O  0.68923736  0.89723697  0.35627453    -0.54920
O169        O  0.62580496  0.84133519  0.31923787    -0.58210
In170      In  0.61513059  0.87270981  0.12004829     1.36870
C171        C  0.62970150  0.94372817  0.10442099     0.79480
O172        O  0.58171943  0.86193114  0.06744638    -0.58960
O173        O  0.55353252  0.87177251  0.11938000    -0.49880
C174        C  0.63099791  0.80102551  0.11373037     0.72150
O175        O  0.64896804  0.82527063  0.09517378    -0.44730
C176        C  0.63486255  0.87719525  0.19054418     0.76850
O177        O  0.64978477  0.91768838  0.09089860    -0.56590
O178        O  0.60125173  0.87251271  0.17994176    -0.46680
O179        O  0.60267055  0.93262203  0.12400156    -0.53020
C180        C  0.55114223  0.86313579  0.08502455     0.87030
O181        O  0.60676969  0.81403624  0.13563486    -0.54920
O182        O  0.65878678  0.88023165  0.16483175    -0.58210
In183      In  0.39023885  0.87388711  0.11544544     1.36870
C184        C  0.36906372  0.94353940  0.10162092     0.79480
O185        O  0.35345279  0.87160608  0.16597699    -0.58960
O186        O  0.41115500  0.88780168  0.17187338    -0.49880
C187        C  0.37588240  0.80119211  0.10786758     0.72150
O188        O  0.35588874  0.82535197  0.09160878    -0.44730
C189        C  0.45346889  0.87536821  0.07870972     0.76850
O190        O  0.34958564  0.91603418  0.08904647    -0.56590
O191        O  0.45136216  0.86947786  0.11327985    -0.46680
O192        O  0.39752359  0.93432105  0.12014879    -0.53020
C193        C  0.37999456  0.88251685  0.18726910     0.87030
O194        O  0.40240291  0.81451772  0.12746863    -0.54920
O195        O  0.42257396  0.87953030  0.06184172    -0.58210
In196      In  0.38389176  0.88795298  0.36145520     1.36870
C197        C  0.45426588  0.86281867  0.36358165     0.79480
O198        O  0.37073777  0.84663791  0.31525353    -0.58960
O199        O  0.37583027  0.90494192  0.30360444    -0.49880
C200        C  0.31203711  0.87817745  0.37686310     0.72150
O201        O  0.33673055  0.85569337  0.38867370    -0.44730
C202        C  0.39869155  0.95328126  0.39228811     0.76850
O203        O  0.43185033  0.85527742  0.38995865    -0.56590
O204        O  0.39864278  0.94715627  0.35751468    -0.46680
O205        O  0.43978428  0.88050926  0.33728988    -0.53020
C206        C  0.37004120  0.87210143  0.29114271     0.87030
O207        O  0.32476958  0.90590633  0.35980805    -0.54920
O208        O  0.39055169  0.92571454  0.41229112    -0.58210
In209      In  0.88145089  0.87071779  0.38174112     1.36870
C210        C  0.95476822  0.87751453  0.37214561     0.79480
O211        O  0.88484529  0.92464739  0.41495896    -0.58960
O212        O  0.87899787  0.87242773  0.44275878    -0.49880
C213        C  0.80952472  0.88081195  0.36622423     0.72150
O214        O  0.83497729  0.89750639  0.34785161    -0.44730
C215        C  0.88138315  0.80025928  0.36200050     0.76850
O216        O  0.93244032  0.89379062  0.34980244    -0.56590
O217        O  0.87618944  0.81138440  0.39529244    -0.46680
O218        O  0.93910975  0.85943753  0.39766759    -0.53020
C219        C  0.88201315  0.90751465  0.44546877     0.87030
O220        O  0.82142911  0.85976846  0.39136602    -0.54920
O221        O  0.88624664  0.82552734  0.33817868    -0.58210
In222      In  0.88700493  0.62470659  0.36452692     1.36870
C223        C  0.86949961  0.60980448  0.43493680     0.79480
O224        O  0.91656793  0.57080984  0.35257986    -0.58960
O225        O  0.94828809  0.61930325  0.36950585    -0.49880
C226        C  0.86976411  0.62054064  0.29269868     0.72150
O227        O  0.85056421  0.60320490  0.31685306    -0.44730
C228        C  0.87198481  0.69584704  0.36897015     0.76850
O229        O  0.85022382  0.59585418  0.40794164    -0.56590
O230        O  0.90474787  0.68389120  0.36337277    -0.46680
O231        O  0.89708186  0.62946441  0.42506117    -0.53020
C232        C  0.94835923  0.58543031  0.35904558     0.87030
O233        O  0.89661054  0.63992606  0.30575261    -0.54920
O234        O  0.84670929  0.67123328  0.37247867    -0.58210
In235      In  0.87157272  0.86603681  0.60375352     1.36870
C236        C  0.94494421  0.87462593  0.60994135     0.79480
O237        O  0.87799172  0.82584212  0.65030548    -0.58960
O238        O  0.86778661  0.80559805  0.59414115    -0.49880
C239        C  0.80032054  0.87395724  0.61919085     0.72150
O240        O  0.82525750  0.89314805  0.63697251    -0.44730
C241        C  0.86262944  0.90029894  0.54081059     0.76850
O242        O  0.92361354  0.89168143  0.63291571    -0.56590
O243        O  0.86506776  0.86523387  0.54289711    -0.46680
O244        O  0.92830632  0.85562071  0.58470718    -0.53020
C245        C  0.87336244  0.79813033  0.62817543     0.87030
O246        O  0.81255962  0.85088216  0.59537376    -0.54920
O247        O  0.86675859  0.91869288  0.57120154    -0.58210
In248      In  0.89302358  0.62654190  0.61428484     1.36870
C249        C  0.88019010  0.62608661  0.54140950     0.79480
O250        O  0.84624759  0.66707061  0.61533846    -0.58960
O251        O  0.90286187  0.68624283  0.62549456    -0.49880
C252        C  0.88295846  0.61339273  0.68581242     0.72150
O253        O  0.86170005  0.59835969  0.66077718    -0.44730
C254        C  0.95480048  0.59016470  0.60313299     0.76850
O255        O  0.86166608  0.60398446  0.56211642    -0.56590
O256        O  0.95401383  0.62512185  0.60863165    -0.46680
O257        O  0.90305949  0.64753623  0.55846796    -0.53020
C258        C  0.86848708  0.69422193  0.62204875     0.87030
O259        O  0.90946263  0.63316104  0.67363409    -0.54920
O260        O  0.92371964  0.57298584  0.60518650    -0.58210
In261      In  0.10567060  0.62718182  0.36785013     1.36870
C262        C  0.13154474  0.61538328  0.43696056     0.79480
O263        O  0.13858180  0.68010629  0.36097439    -0.58960
O264        O  0.08142574  0.68266323  0.37850812    -0.49880
C265        C  0.12125331  0.62008586  0.29571189     0.72150
O266        O  0.14346975  0.60850548  0.32081079    -0.44730
C267        C  0.04426165  0.58679997  0.37344133     0.76850
O268        O  0.14566292  0.59814431  0.40915839    -0.56590
O269        O  0.04426173  0.62153971  0.36887240    -0.46680
O270        O  0.10717807  0.63882474  0.42816668    -0.53020
C271        C  0.11104604  0.70006938  0.37043925     0.87030
O272        O  0.09110659  0.63353992  0.30773742    -0.54920
O273        O  0.07605890  0.57168289  0.37345365    -0.58210
In274      In  0.13228938  0.87390571  0.37414055     1.36870
C275        C  0.06134102  0.88758839  0.35400315     0.79480
O276        O  0.13732759  0.82631375  0.33225484    -0.58960
O277        O  0.12949505  0.81545383  0.39022662    -0.49880
C278        C  0.20503356  0.88629833  0.36520619     0.72150
O279        O  0.18070197  0.90174778  0.34453392    -0.44730
C280        C  0.12627691  0.90356352  0.44117178     0.76850
O281        O  0.08822846  0.90372991  0.33739087    -0.56590
O282        O  0.12425795  0.86910105  0.43383579    -0.46680
O283        O  0.07180636  0.86503202  0.37832860    -0.53020
C284        C  0.13330870  0.80237905  0.35755123     0.87030
O285        O  0.19178961  0.86525931  0.38968329    -0.54920
O286        O  0.13277196  0.92418790  0.41361967    -0.58210
In287      In  0.12057158  0.86755826  0.60753774     1.36870
C288        C  0.05133585  0.88389437  0.62859662     0.79480
O289        O  0.11946345  0.91148944  0.56325067    -0.58960
O290        O  0.10161490  0.85559300  0.55031457    -0.49880
C291        C  0.19303539  0.88124125  0.61613056     0.72150
O292        O  0.16901845  0.89670284  0.63735576    -0.44730
C293        C  0.12643390  0.79916293  0.63079743     0.76850
O294        O  0.07859310  0.90485919  0.63908357    -0.56590
O295        O  0.12995289  0.80784396  0.59697004    -0.46680
O296        O  0.06086994  0.85481060  0.61100557    -0.53020
C297        C  0.10637856  0.88840138  0.53926824     0.87030
O298        O  0.17951339  0.86084493  0.59028136    -0.54920
O299        O  0.12029113  0.82590100  0.65344548    -0.58210
In300      In  0.11159684  0.62682923  0.61749160     1.36870
C301        C  0.11926349  0.62406938  0.54410373     0.79480
O302        O  0.08213189  0.57140221  0.61953937    -0.58960
O303        O  0.05054930  0.62209184  0.61632639    -0.49880
C304        C  0.12525291  0.61783029  0.68888703     0.72150
O305        O  0.14503436  0.60131597  0.66406547    -0.44730
C306        C  0.13441823  0.69578155  0.62181460     0.76850
O307        O  0.14166184  0.60558643  0.56456639    -0.56590
O308        O  0.10050200  0.68630302  0.62641634    -0.46680
O309        O  0.09423991  0.64176587  0.56149598    -0.53020
C310        C  0.05036078  0.58689895  0.61859090     0.87030
O311        O  0.09959824  0.63836510  0.67656413    -0.54920
O312        O  0.15717890  0.66954102  0.61525961    -0.58210
In313      In  0.37136701  0.88165127  0.62102601     1.36870
C314        C  0.44442087  0.87253895  0.61425681     0.79480
O315        O  0.37114857  0.91784869  0.57009067    -0.58960
O316        O  0.37608928  0.94162738  0.62545596    -0.49880
C317        C  0.29958777  0.86964744  0.60762080     0.72150
O318        O  0.32437577  0.85004089  0.59108624    -0.44730
C319        C  0.36896345  0.86031271  0.69029570     0.76850
O320        O  0.42211732  0.85102180  0.59567805    -0.56590
O321        O  0.36287529  0.89340258  0.68062032    -0.46680
O322        O  0.42884533  0.89662765  0.63473848    -0.53020
C323        C  0.37535466  0.94679851  0.59060731     0.87030
O324        O  0.31213345  0.89420247  0.63014136    -0.54920
O325        O  0.37564704  0.83718867  0.66401459    -0.58210
In326      In  0.38294005  0.87508808  0.86413703     1.36870
C327        C  0.36417798  0.94592876  0.87582875     0.79480
O328        O  0.41860322  0.87893612  0.91626649    -0.58960
O329        O  0.44400797  0.88044062  0.86219902    -0.49880
C330        C  0.37061484  0.80296979  0.87319328     0.72150
O331        O  0.35024868  0.82734984  0.88928246    -0.44730
C332        C  0.36170706  0.87132758  0.79417823     0.76850
O333        O  0.34856917  0.92008479  0.89425877    -0.56590
O334        O  0.39567332  0.86945784  0.80419857    -0.46680
O335        O  0.38789008  0.93468768  0.85227265    -0.53020
C336        C  0.44827269  0.88101193  0.89728676     0.87030
O337        O  0.39712533  0.81590404  0.85427354    -0.54920
O338        O  0.33822018  0.87558297  0.82019461    -0.58210
In339      In  0.37626715  0.11621854  0.61842958     1.36870
C340        C  0.44473334  0.13959761  0.59873636     0.79480
O341        O  0.37572732  0.16211507  0.66178633    -0.58960
O342        O  0.36811203  0.10530884  0.67799585    -0.49880
C343        C  0.30310373  0.12381629  0.60500713     0.72150
O344        O  0.32731149  0.14563416  0.59092114    -0.44730
C345        C  0.39271832  0.04684349  0.60252927     0.76850
O346        O  0.41800588  0.13887361  0.57500427    -0.56590
O347        O  0.39880657  0.06209271  0.63394859    -0.46680
O348        O  0.43453589  0.13323905  0.63160139    -0.53020
C349        C  0.37082054  0.13921953  0.68788833     0.87030
O350        O  0.31670720  0.09785394  0.62379957    -0.54920
O351        O  0.37754270  0.06711255  0.57830657    -0.58210
In352      In  0.38829203  0.12430856  0.85983852     1.36870
C353        C  0.37607873  0.05153534  0.86010131     0.79480
O354        O  0.34215096  0.12321735  0.81766425    -0.58960
O355        O  0.39904386  0.13287494  0.80028830    -0.49880
C356        C  0.37708803  0.19607641  0.87209371     0.72150
O357        O  0.35603202  0.17139755  0.88670134    -0.44730
C358        C  0.44913847  0.11730038  0.89948727     0.76850
O359        O  0.35677041  0.07297984  0.88120780    -0.56590
O360        O  0.44934874  0.12134280  0.86438949    -0.46680
O361        O  0.39983182  0.06776516  0.83991422    -0.53020
C362        C  0.36476350  0.12924993  0.79122256     0.87030
O363        O  0.40385361  0.18354584  0.85291059    -0.54920
O364        O  0.41735231  0.11791588  0.91499406    -0.58210
In365      In  0.61296455  0.87322901  0.86179573     1.36870
C366        C  0.62624952  0.94570008  0.87766754     0.79480
O367        O  0.65715163  0.87751233  0.81770422    -0.58960
O368        O  0.59958191  0.86992069  0.80181221    -0.49880
C369        C  0.62889794  0.80192703  0.87297490     0.72150
O370        O  0.64499720  0.82783406  0.89216778    -0.44730
C371        C  0.54647483  0.86491580  0.89036798     0.76850
O372        O  0.64724988  0.92044184  0.89063885    -0.56590
O373        O  0.55192697  0.86936113  0.85593335    -0.46680
O374        O  0.59912287  0.93327986  0.85816523    -0.53020
C375        C  0.63319248  0.87324315  0.79166275     0.87030
O376        O  0.60690406  0.81309744  0.84806689    -0.54920
O377        O  0.57515602  0.86727601  0.91131320    -0.58210
In378      In  0.62156133  0.87583230  0.61703371     1.36870
C379        C  0.55069236  0.85667958  0.60267345     0.79480
O380        O  0.61881723  0.83402508  0.66284745    -0.58960
O381        O  0.62703124  0.89186718  0.67650884    -0.49880
C382        C  0.69379218  0.86355472  0.60723627     0.72150
O383        O  0.66907533  0.84332176  0.59063110    -0.44730
C384        C  0.61800376  0.94200158  0.58781634     0.76850
O385        O  0.57714157  0.83965225  0.58612104    -0.56590
O386        O  0.61625134  0.93579048  0.62235214    -0.46680
O387        O  0.56150977  0.88150165  0.62583847    -0.53020
C388        C  0.62368534  0.85897779  0.68794700     0.87030
O389        O  0.68113374  0.88958820  0.62726448    -0.54920
O390        O  0.62025568  0.91343317  0.56669447    -0.58210
In391      In  0.62425542  0.11321330  0.62225487     1.36870
C392        C  0.55125052  0.12716100  0.61353506     0.79480
O393        O  0.62419576  0.06683853  0.57824949    -0.58960
O394        O  0.62887998  0.05504227  0.63652359    -0.49880
C395        C  0.69585132  0.12609499  0.60647614     0.72150
O396        O  0.66987906  0.14008512  0.58662671    -0.44730
C397        C  0.62683765  0.13927226  0.69101281     0.76850
O398        O  0.57507831  0.14350659  0.59301549    -0.56590
O399        O  0.62922777  0.10516530  0.68238660    -0.46680
O400        O  0.56500230  0.10351135  0.63511246    -0.53020
C401        C  0.62974068  0.04300572  0.60334240     0.87030
O402        O  0.68456128  0.10825869  0.63408985    -0.54920
O403        O  0.62342050  0.16124418  0.66386043    -0.58210
In404      In  0.60558336  0.12631743  0.86250692     1.36870
C405        C  0.60993603  0.05237053  0.86761961     0.79480
O406        O  0.57589911  0.13159648  0.91711665    -0.58960
O407        O  0.54454782  0.12933286  0.86535425    -0.49880
C408        C  0.62058527  0.19768627  0.87403410     0.72150
O409        O  0.63948407  0.17265388  0.89061106    -0.44730
C410        C  0.63043731  0.12984925  0.79446296     0.76850
O411        O  0.63351994  0.07340143  0.88511450    -0.56590
O412        O  0.59615098  0.13385311  0.80234136    -0.46680
O413        O  0.58563888  0.06947825  0.84883902    -0.53020
C414        C  0.54434756  0.13287963  0.90066998     0.87030
O415        O  0.59535744  0.18559438  0.85191911    -0.54920
O416        O  0.65226256  0.12333799  0.82167369    -0.58210
In417      In  0.37060164  0.62513152  0.87487985     1.36870
C418        C  0.38783473  0.55420417  0.85909300     0.79480
O419        O  0.42069360  0.63465972  0.91242557    -0.58960
O420        O  0.36623426  0.62671489  0.93598476    -0.49880
C421        C  0.37937162  0.69674868  0.86001706     0.72150
O422        O  0.39941437  0.67207978  0.84397488    -0.44730
C423        C  0.29990104  0.62165210  0.85542612     0.76850
O424        O  0.39938579  0.58039305  0.83850308    -0.56590
O425        O  0.31087144  0.62536440  0.88891227    -0.46680
O426        O  0.36953898  0.56516092  0.88718608    -0.53020
C427        C  0.40046414  0.63432478  0.94128402     0.87030
O428        O  0.35466293  0.68417477  0.88133299    -0.54920
O429        O  0.32540528  0.61865478  0.83121893    -0.58210
In430      In  0.12513486  0.61448085  0.86729718     1.36870
C431        C  0.11038092  0.63248028  0.93843421     0.79480
O432        O  0.07563423  0.57467748  0.86285559    -0.58960
O433        O  0.13030228  0.55541556  0.87729741    -0.49880
C434        C  0.11419904  0.62685863  0.79540276     0.72150
O435        O  0.09747654  0.64611654  0.82036257    -0.44730
C436        C  0.19615402  0.63288929  0.86529230     0.76850
O437        O  0.09497370  0.65016984  0.91194441    -0.56590
O438        O  0.18435066  0.59997442  0.85994523    -0.46680
O439        O  0.13276484  0.60762793  0.92767802    -0.53020
C440        C  0.09616372  0.54760669  0.87172818     0.87030
O441        O  0.13511559  0.60177523  0.80767020    -0.54920
O442        O  0.17135018  0.65706496  0.87188227    -0.58210
In443      In  0.37012509  0.62284662  0.10278706     1.36870
C444        C  0.37232071  0.54944692  0.11051930     0.79480
O445        O  0.32808097  0.62171435  0.14859142    -0.58960
O446        O  0.31029030  0.63077578  0.09191082    -0.49880
C447        C  0.38385468  0.69442418  0.11691299     0.72150
O448        O  0.39963328  0.66924074  0.13616384    -0.44730
C449        C  0.40524088  0.61984467  0.03929530     0.76850
O450        O  0.39276344  0.57058953  0.13154525    -0.56590
O451        O  0.37029301  0.62471760  0.04188753    -0.46680
O452        O  0.35185379  0.56623624  0.08747562    -0.53020
C453        C  0.30136721  0.62737243  0.12585550     0.87030
O454        O  0.36238568  0.68238203  0.09121040    -0.54920
O455        O  0.42303204  0.61649560  0.06982180    -0.58210
In456      In  0.12780181  0.61113662  0.11836946     1.36870
C457        C  0.11584134  0.62963780  0.18895359     0.79480
O458        O  0.07563846  0.57619382  0.12285920    -0.58960
O459        O  0.12983274  0.55067014  0.12523695    -0.49880
C460        C  0.11839603  0.61506312  0.04476197     0.72150
O461        O  0.10369954  0.63958552  0.06620809    -0.44730
C462        C  0.19725419  0.63427297  0.11834154     0.76850
O463        O  0.09703328  0.64467200  0.16282127    -0.56590
O464        O  0.18799407  0.60075665  0.12400965    -0.46680
O465        O  0.14090452  0.60752794  0.17819381    -0.53020
C466        C  0.09465888  0.54690657  0.12709790     0.87030
O467        O  0.13598271  0.58982482  0.06135041    -0.54920
O468        O  0.17059446  0.65654701  0.11243338    -0.58210
In469      In  0.12454209  0.38696034  0.11584212     1.36870
C470        C  0.12463499  0.36807146  0.04352064     0.79480
O471        O  0.07174669  0.41962080  0.10764201    -0.58960
O472        O  0.12484697  0.44784144  0.11291344    -0.49880
C473        C  0.11029440  0.37549193  0.18726392     0.72150
O474        O  0.09558207  0.35480525  0.16159205    -0.44730
C475        C  0.19359479  0.36637956  0.12545080     0.76850
O476        O  0.10121421  0.35282556  0.06537759    -0.56590
O477        O  0.18395357  0.40027897  0.12645170    -0.46680
O478        O  0.14612151  0.39198027  0.05890947    -0.53020
C479        C  0.08976662  0.45018075  0.10875151     0.87030
O480        O  0.13043292  0.40186606  0.17582083    -0.54920
O481        O  0.16755347  0.34266100  0.11962900    -0.58210
In482      In  0.36613638  0.37150147  0.11128229     1.36870
C483        C  0.38447903  0.44313474  0.12407020     0.79480
O484        O  0.41195769  0.36504384  0.06851403    -0.58960
O485        O  0.35424852  0.36461317  0.05168248    -0.49880
C486        C  0.37686087  0.30063559  0.12810153     0.72150
O487        O  0.39790299  0.32635084  0.14185080    -0.44730
C488        C  0.29717420  0.37557153  0.13478921     0.76850
O489        O  0.39882379  0.41753052  0.14354456    -0.56590
O490        O  0.30570578  0.37141313  0.10085277    -0.46680
O491        O  0.36281744  0.43134061  0.09835467    -0.53020
C492        C  0.38797334  0.36067215  0.04252806     0.87030
O493        O  0.35040780  0.31182262  0.10803570    -0.54920
O494        O  0.32437766  0.37848269  0.15759110    -0.58210
In495      In  0.37003737  0.37405897  0.87669394     1.36870
C496        C  0.37575196  0.44758840  0.87155420     0.79480
O497        O  0.32826501  0.37656968  0.82961923    -0.58960
O498        O  0.31002203  0.36530850  0.88534139    -0.49880
C499        C  0.38438476  0.30288235  0.86283623     0.72150
O500        O  0.40109532  0.32848375  0.84479405    -0.44730
C501        C  0.40058206  0.37387694  0.94302035     0.76850
O502        O  0.39479690  0.42667364  0.84969748    -0.56590
O503        O  0.36573214  0.37088202  0.93688608    -0.46680
O504        O  0.35489020  0.43053820  0.89394562    -0.53020
C505        C  0.30133194  0.36972367  0.85142695     0.87030
O506        O  0.36128098  0.31433310  0.88671825    -0.54920
O507        O  0.42091476  0.37792342  0.91446358    -0.58210
In508      In  0.12916443  0.38018630  0.86903304     1.36870
C509        C  0.11502370  0.37336920  0.79624924     0.79480
O510        O  0.08679621  0.42619632  0.87209603    -0.58960
O511        O  0.14273614  0.43557684  0.89219742    -0.49880
C512        C  0.11187006  0.35592007  0.93701537     0.72150
O513        O  0.08853889  0.35236786  0.91006806    -0.44730
C514        C  0.19816738  0.35826692  0.85980520     0.76850
O515        O  0.10095532  0.35074454  0.81944598    -0.56590
O516        O  0.18877443  0.39211463  0.85932222    -0.46680
O517        O  0.13372994  0.39984540  0.81081034    -0.53020
C518        C  0.11041687  0.44837289  0.88713725     0.87030
O519        O  0.14365298  0.36770063  0.92746274    -0.54920
O520        O  0.17189511  0.33500875  0.86502462    -0.58210
In521      In  0.62561110  0.37606445  0.87918338     1.36870
C522        C  0.62657380  0.44782604  0.86211426     0.79480
O523        O  0.57294059  0.38298351  0.91230894    -0.58960
O524        O  0.62645544  0.38279042  0.94022373    -0.49880
C525        C  0.61129417  0.30437999  0.86771049     0.72150
O526        O  0.59596221  0.32908346  0.84755642    -0.44730
C527        C  0.69336627  0.36616061  0.85511716     0.76850
O528        O  0.60281767  0.42575803  0.84628873    -0.56590
O529        O  0.68516162  0.36510352  0.88949957    -0.46680
O530        O  0.64793632  0.43286576  0.88564146    -0.53020
C531        C  0.59125529  0.38528641  0.94274044     0.87030
O532        O  0.63200422  0.31689888  0.89385392    -0.54920
O533        O  0.66653084  0.37227581  0.83270005    -0.58210
In534      In  0.86463642  0.37927494  0.87139659     1.36870
C535        C  0.88477243  0.35636414  0.93937259     0.79480
O536        O  0.90353826  0.42881010  0.87523498    -0.58960
O537        O  0.84680412  0.43364497  0.89325143    -0.49880
C538        C  0.87888330  0.37187101  0.79865217     0.72150
O539        O  0.89224216  0.34941789  0.82235483    -0.44730
C540        C  0.79594381  0.35469443  0.86325346     0.76850
O541        O  0.90831045  0.35680744  0.91288523    -0.56590
O542        O  0.80490085  0.38874062  0.86160548    -0.46680
O543        O  0.85179131  0.36354285  0.92935232    -0.53020
C544        C  0.87806449  0.44926614  0.88855976     0.87030
O545        O  0.86084625  0.39854266  0.81266832    -0.54920
O546        O  0.82263865  0.33236515  0.86863912    -0.58210
In547      In  0.62620318  0.37243310  0.10204373     1.36870
C548        C  0.61612607  0.30149279  0.11781953     0.79480
O549        O  0.57295930  0.36695129  0.06871426    -0.58960
O550        O  0.62624998  0.36754143  0.04099032    -0.49880
C551        C  0.61686473  0.44567673  0.10664543     0.72150
O552        O  0.60120493  0.42468830  0.13049200    -0.44730
C553        C  0.69505647  0.37544014  0.12668957     0.76850
O554        O  0.59824404  0.32701517  0.13531375    -0.56590
O555        O  0.68664146  0.36792981  0.09293506    -0.46680
O556        O  0.63910620  0.31291271  0.09392584    -0.53020
C557        C  0.59092626  0.36519091  0.03831608     0.87030
O558        O  0.63565359  0.42881104  0.08196789    -0.54920
O559        O  0.66782466  0.38130690  0.14846745    -0.58210
In560      In  0.86931959  0.38834755  0.11668644     1.36870
C561        C  0.88174286  0.37574464  0.18852832     0.79480
O562        O  0.92266526  0.42123854  0.10960695    -0.58960
O563        O  0.86976791  0.44905757  0.10950878    -0.49880
C564        C  0.87103491  0.36641873  0.04516586     0.72150
O565        O  0.89416682  0.35299921  0.06857239    -0.44730
C566        C  0.79942764  0.36791930  0.12277040     0.76850
O567        O  0.89640354  0.35551151  0.16299069    -0.56590
O568        O  0.80980696  0.40176559  0.12540745    -0.46680
O569        O  0.86292674  0.40279294  0.17690888    -0.53020
C570        C  0.90490306  0.45135353  0.10616649     0.87030
O571        O  0.84889270  0.39020382  0.05864992    -0.54920
O572        O  0.82515244  0.34430928  0.11771968    -0.58210
In573      In  0.87504991  0.61821929  0.86480605     1.36870
C574        C  0.88990827  0.63659902  0.93613202     0.79480
O575        O  0.83243337  0.66401066  0.86663829    -0.58960
O576        O  0.81501959  0.60773941  0.85502155    -0.49880
C577        C  0.89029992  0.62624591  0.79287334     0.72150
O578        O  0.90588643  0.64700071  0.81788857    -0.44730
C579        C  0.89725248  0.54971346  0.87375643     0.76850
O580        O  0.90931995  0.65062913  0.91006296    -0.56590
O581        O  0.86369491  0.56006728  0.87650807    -0.46680
O582        O  0.86344785  0.61576693  0.92473680    -0.53020
C583        C  0.80577250  0.64131763  0.85979022     0.87030
O584        O  0.86816127  0.60197567  0.80513686    -0.54920
O585        O  0.92065416  0.57495322  0.86569801    -0.58210
In586      In  0.63267349  0.62284505  0.87275504     1.36870
C587        C  0.61885730  0.69483972  0.86418926     0.79480
O588        O  0.58884311  0.62039760  0.91773036    -0.58960
O589        O  0.64491465  0.60303039  0.92889359    -0.49880
C590        C  0.61537953  0.55364500  0.84917905     0.72150
O591        O  0.59277500  0.58027572  0.84369169    -0.44730
C592        C  0.70197123  0.63050194  0.85062167     0.76850
O593        O  0.60492000  0.67006042  0.84209028    -0.56590
O594        O  0.69251908  0.63380818  0.88446768    -0.46680
O595        O  0.63746149  0.68231507  0.89115750    -0.53020
C596        C  0.61196066  0.60677265  0.94054531     0.87030
O597        O  0.64656081  0.56386533  0.86273144    -0.54920
O598        O  0.67563289  0.62345936  0.82757383    -0.58210
In599      In  0.62563274  0.62271075  0.10795876     1.36870
C600        C  0.60830393  0.55220732  0.12403766     0.79480
O601        O  0.57637507  0.62881238  0.06820183    -0.58960
O602        O  0.63043999  0.61317319  0.04830546    -0.49880
C603        C  0.61831178  0.69495732  0.12243236     0.72150
O604        O  0.59957399  0.67078747  0.14029801    -0.44730
C605        C  0.69657985  0.62138401  0.12670991     0.76850
O606        O  0.59480164  0.57903803  0.14333589    -0.56590
O607        O  0.68524930  0.62705523  0.09385084    -0.46680
O608        O  0.62938065  0.56238163  0.09799566    -0.53020
C609        C  0.59665330  0.61992162  0.04063177     0.87030
O610        O  0.63982974  0.68176937  0.09796673    -0.54920
O611        O  0.67130048  0.61633828  0.15072955    -0.58210
In612      In  0.87119357  0.61012176  0.11522111     1.36870
C613        C  0.87873532  0.61855717  0.04205274     0.79480
O614        O  0.92528065  0.57933639  0.12263008    -0.58960
O615        O  0.87352651  0.54910423  0.11501538    -0.49880
C616        C  0.87920086  0.62877977  0.18639548     0.72150
O617        O  0.89695175  0.64642603  0.16128934    -0.44730
C618        C  0.80089078  0.62896269  0.11582159     0.76850
O619        O  0.89550016  0.64115144  0.06467447    -0.56590
O620        O  0.81153561  0.59593433  0.12127486    -0.46680
O621        O  0.86032925  0.59293045  0.05733239    -0.53020
C622        C  0.90852460  0.54808040  0.12054008     0.87030
O623        O  0.85795631  0.60286697  0.17444810    -0.54920
O624        O  0.82651000  0.65273258  0.10978226    -0.58210
C625        C  0.73649739  0.61937496  0.13540234    -0.14530
C626        C  0.76125591  0.63840013  0.11505520    -0.29710
H627        H  0.74580210  0.60016141  0.15662281     0.14490
H628        H  0.75195691  0.65949134  0.09570948     0.15060
C629        C  0.60308624  0.59614938  0.97846930    -0.14530
C630        C  0.58371017  0.61822755  0.00166944    -0.29710
H631        H  0.62157044  0.57532487  0.99018701     0.14490
H632        H  0.56532259  0.63975016  0.99130472     0.15060
C633        C  0.89686340  0.64212740  0.97720753    -0.14530
C634        C  0.87774541  0.61991153  0.00068141    -0.29710
H635        H  0.91716057  0.66255667  0.98768526     0.14490
H636        H  0.85867901  0.59915804  0.98845975     0.15060
C637        C  0.76635582  0.65197013  0.85984553    -0.14530
C638        C  0.74127715  0.63195021  0.83966608    -0.29710
H639        H  0.75729266  0.67279187  0.88021424     0.14490
H640        H  0.75042723  0.61269570  0.81783280     0.15060
C641        C  0.92256687  0.48694601  0.09743571    -0.14530
C642        C  0.92718238  0.51230421  0.12492874    -0.29710
H643        H  0.91642202  0.49684535  0.06951219     0.14490
H644        H  0.93105391  0.50307814  0.15346573     0.15060
C645        C  0.61548596  0.48691302  0.10524851    -0.14530
C646        C  0.60149798  0.51158749  0.13042325    -0.29710
H647        H  0.62948579  0.49785165  0.08084214     0.14490
H648        H  0.58704699  0.50225917  0.15518264     0.15060
C649        C  0.73412990  0.37868909  0.13873267    -0.14530
C650        C  0.75991873  0.35715544  0.12242681    -0.29710
H651        H  0.74222104  0.40124833  0.15792194     0.14490
H652        H  0.75146459  0.33323982  0.10512389     0.15060
C653        C  0.89434804  0.35177755  0.97981157    -0.14530
C654        C  0.86670854  0.35551793  0.00519997    -0.29710
H655        H  0.92347319  0.35130515  0.98871409     0.14490
H656        H  0.83807094  0.35771455  0.99497879     0.15060
C657        C  0.88222996  0.48900472  0.89626246    -0.14530
C658        C  0.90689790  0.51048962  0.87844938    -0.29710
H659        H  0.85929335  0.50186600  0.91147178     0.14490
H660        H  0.93016096  0.49861904  0.86303378     0.15060
C661        C  0.63202487  0.48806992  0.85493878    -0.14530
C662        C  0.60632664  0.51306489  0.84371449    -0.29710
H663        H  0.65923160  0.49852417  0.86440029     0.14490
H664        H  0.57832316  0.50411160  0.83533575     0.15060
C665        C  0.57392351  0.39025931  0.97924695    -0.14530
C666        C  0.57308140  0.36090152  0.00166249    -0.29710
H667        H  0.57659316  0.41801914  0.99178823     0.14490
H668        H  0.57383199  0.33302948  0.98919745     0.15060
C669        C  0.73206352  0.36336701  0.84278816    -0.14530
C670        C  0.75668972  0.34311076  0.86193267    -0.29710
H671        H  0.74156255  0.38268082  0.82171912     0.14490
H672        H  0.74723334  0.32235114  0.88158644     0.15060
C673        C  0.26211945  0.36907671  0.83950533    -0.14530
C674        C  0.23743189  0.34754825  0.85738949    -0.29710
H675        H  0.25270115  0.39020931  0.82027056     0.14490
H676        H  0.24699556  0.32509150  0.87498091     0.15060
C677        C  0.41494215  0.37255129  0.98141249    -0.14530
C678        C  0.39668062  0.34981191  0.00428972    -0.29710
H679        H  0.43320774  0.39474286  0.99207180     0.14490
H680        H  0.37776970  0.32882377  0.99211416     0.15060
C681        C  0.10302189  0.35051882  0.97740699    -0.14530
C682        C  0.12968036  0.35966464  0.00314267    -0.29710
H683        H  0.07452212  0.34440104  0.98586164     0.14490
H684        H  0.15742419  0.36712287  0.99326294     0.15060
C685        C  0.23282132  0.35575162  0.12795934    -0.14530
C686        C  0.25802300  0.37767483  0.14577190    -0.29710
H687        H  0.24186366  0.33203818  0.11103898     0.14490
H688        H  0.24937533  0.40015585  0.16447169     0.15060
C689        C  0.07827899  0.51053109  0.13468979    -0.14530
C690        C  0.07226033  0.48667067  0.10613495    -0.29710
H691        H  0.08588639  0.49922989  0.16171222     0.14490
H692        H  0.06746756  0.49720051  0.07822847     0.15060
C693        C  0.37044554  0.50811558  0.11043053    -0.14530
C694        C  0.39115163  0.48403415  0.13030754    -0.29710
H695        H  0.34972630  0.49662170  0.09086924     0.14490
H696        H  0.41195659  0.49403733  0.15048765     0.15060
C697        C  0.23658420  0.64552485  0.11692592    -0.14530
C698        C  0.26219522  0.62753454  0.13717646    -0.29710
H699        H  0.24501826  0.66557313  0.09611602     0.14490
H700        H  0.25370075  0.60924020  0.15953015     0.15060
C701        C  0.10376893  0.63899084  0.97927520    -0.14530
C702        C  0.11741112  0.61372629  0.00332460    -0.29710
H703        H  0.08919815  0.66361588  0.98926746     0.14490
H704        H  0.13116404  0.58924757  0.99168992     0.15060
C705        C  0.08297385  0.50903452  0.87475906    -0.14530
C706        C  0.10297988  0.48704760  0.89699636    -0.29710
H707        H  0.06340776  0.49760753  0.85404682     0.14490
H708        H  0.12256437  0.49972635  0.91706508     0.15060
C709        C  0.39364824  0.51350439  0.85149944    -0.14530
C710        C  0.37603365  0.48890131  0.87361174    -0.29710
H711        H  0.41062214  0.50407101  0.82819128     0.14490
H712        H  0.35879176  0.49989663  0.89609558     0.15060
C713        C  0.41399962  0.64457441  0.97857464    -0.14530
C714        C  0.42273665  0.61790653  0.00255339    -0.29710
H715        H  0.40293529  0.67065139  0.98971916     0.14490
H716        H  0.43196070  0.59080153  0.99238624     0.15060
C717        C  0.23614477  0.64154408  0.86565230    -0.14530
C718        C  0.26007562  0.62036251  0.84612573    -0.29710
H719        H  0.24640648  0.66351051  0.88452850     0.14490
H720        H  0.25005531  0.60009729  0.82530822     0.15060
C721        C  0.62657152  0.23829371  0.88003004    -0.14530
C722        C  0.60608979  0.26375044  0.86134199    -0.29710
H723        H  0.64775176  0.24739931  0.90027270     0.14490
H724        H  0.58538097  0.25462392  0.84063094     0.15060
C725        C  0.62589590  0.15112773  0.73027244    -0.14530
C726        C  0.64330725  0.13046234  0.75587033    -0.29710
H727        H  0.60664086  0.17299639  0.73860143     0.14490
H728        H  0.66416266  0.11013416  0.74744034     0.15060
C729        C  0.61908344  0.98055484  0.57504720    -0.14530
C730        C  0.63905503  0.00414828  0.59674789    -0.29710
H731        H  0.59943738  0.99008827  0.55404428     0.14490
H732        H  0.65768790  0.99274517  0.61784311     0.15060
C733        C  0.63407405  0.76147433  0.87908391    -0.14530
C734        C  0.61453532  0.73542812  0.85871939    -0.29710
H735        H  0.65355202  0.75300594  0.90073222     0.14490
H736        H  0.59541502  0.74404292  0.83681946     0.15060
C737        C  0.63237102  0.98683844  0.88360751    -0.14530
C738        C  0.60854991  0.01084637  0.86725349    -0.29710
H739        H  0.65609450  0.99712086  0.90007534     0.14490
H740        H  0.58536163  0.99916459  0.85085796     0.15060
C741        C  0.64283358  0.87306617  0.75210225    -0.14530
C742        C  0.62359192  0.85115915  0.72783295    -0.29710
H743        H  0.66340153  0.89315704  0.74243825     0.14490
H744        H  0.60496117  0.82938386  0.73770767     0.15060
C745        C  0.39088126  0.26236967  0.85736037    -0.14530
C746        C  0.37099630  0.23668715  0.87660117    -0.29710
H747        H  0.41209959  0.25355070  0.83757515     0.14490
H748        H  0.34933107  0.24561925  0.89585022     0.15060
C749        C  0.50919700  0.13922474  0.92017035    -0.14530
C750        C  0.48413648  0.11140938  0.91976623    -0.29710
H751        H  0.49896169  0.16765411  0.91893777     0.14490
H752        H  0.49429515  0.08291821  0.91876641     0.15060
C753        C  0.48553558  0.14352589  0.58971521    -0.14530
C754        C  0.51066161  0.13517479  0.61677516    -0.29710
H755        H  0.49447687  0.14802357  0.56121281     0.14490
H756        H  0.49998360  0.12876365  0.64431303     0.15060
C757        C  0.37109080  0.15023584  0.72738075    -0.14530
C758        C  0.35278553  0.12946454  0.75214557    -0.29710
H759        H  0.39032563  0.17223406  0.73667949     0.14490
H760        H  0.33193067  0.10896495  0.74287067     0.15060
C761        C  0.36425864  0.76231860  0.87576070    -0.14530
C762        C  0.38464231  0.73738170  0.85570054    -0.29710
H763        H  0.34256684  0.75273727  0.89451417     0.14490
H764        H  0.40627306  0.74692021  0.83685712     0.15060
C765        C  0.35694874  0.98663359  0.88101740    -0.14530
C766        C  0.37338702  0.01040400  0.85721299    -0.29710
H767        H  0.34076891  0.99685695  0.90457255     0.14490
H768        H  0.38937721  0.99874325  0.83412395     0.15060
C769        C  0.48585188  0.88280738  0.91361753    -0.14530
C770        C  0.50916423  0.85562334  0.90356654    -0.29710
H771        H  0.49676958  0.90996535  0.92245681     0.14490
H772        H  0.49728579  0.82981856  0.89192948     0.15060
C773        C  0.50978999  0.84969416  0.59628967    -0.14530
C774        C  0.48578137  0.87241369  0.61441348    -0.29710
H775        H  0.49983253  0.82742334  0.57769544     0.14490
H776        H  0.49744957  0.89443992  0.63240823     0.15060
C777        C  0.37955976  0.98456734  0.57650034    -0.14530
C778        C  0.40146679  0.00770465  0.59686740    -0.29710
H779        H  0.35992307  0.99470401  0.55577324     0.14490
H780        H  0.42042776  0.99614078  0.61754709     0.15060
C781        C  0.37039412  0.85067589  0.72974332    -0.14530
C782        C  0.35087879  0.87060516  0.75478569    -0.29710
H783        H  0.39061405  0.83014222  0.73872317     0.14490
H784        H  0.32900586  0.88940349  0.74579432     0.15060
C785        C  0.13080107  0.61346400  0.72952746    -0.14530
C786        C  0.10997499  0.63259951  0.75481267    -0.29710
H787        H  0.15182116  0.59389902  0.73879061     0.14490
H788        H  0.08936562  0.65259859  0.74557962     0.15060
C789        C  0.25877379  0.86498847  0.60160628    -0.14530
C790        C  0.23392335  0.88582211  0.62120136    -0.29710
H791        H  0.24902377  0.84420831  0.58119098     0.14490
H792        H  0.24374780  0.90605428  0.64213407     0.15060
C793        C  0.12681317  0.76024453  0.64196376    -0.14530
C794        C  0.14567354  0.73498097  0.62172829    -0.29710
H795        H  0.10774338  0.75157948  0.66375186     0.14490
H796        H  0.16637432  0.74368125  0.60146503     0.15060
C797        C  0.12134905  0.91700479  0.47968431    -0.14530
C798        C  0.09794913  0.89701347  0.50057495    -0.29710
H799        H  0.14191474  0.93605707  0.49216555     0.14490
H800        H  0.07830084  0.87782265  0.48666870     0.15060
C801        C  0.12965747  0.61804490  0.25536995    -0.14530
C802        C  0.10872436  0.63552188  0.22933432    -0.29710
H803        H  0.15350977  0.60140203  0.24688972     0.14490
H804        H  0.08528811  0.65278108  0.23770383     0.15060
C805        C  0.14030846  0.60865825  0.47722055    -0.14530
C806        C  0.11990015  0.62737275  0.50296953    -0.29710
H807        H  0.16070130  0.58800525  0.48536789     0.14490
H808        H  0.09946759  0.64729050  0.49311081     0.15060
C809        C  0.11298704  0.74057677  0.37387805    -0.14530
C810        C  0.13231518  0.76200600  0.35041715    -0.29710
H811        H  0.09638297  0.75338283  0.39591733     0.14490
H812        H  0.14632435  0.75006078  0.32621649     0.15060
C813        C  0.87725177  0.60910381  0.72648147    -0.14530
C814        C  0.89686401  0.62973470  0.75224303    -0.29710
H815        H  0.85585946  0.58950812  0.73536056     0.14490
H816        H  0.91758635  0.65000808  0.74333970     0.15060
C817        C  0.98991543  0.57204030  0.59347581    -0.14530
C818        C  0.01483243  0.56654564  0.62078076    -0.29710
H819        H  0.00056511  0.57925120  0.56610221     0.14490
H820        H  0.00484087  0.56132076  0.64884276     0.15060
C821        C  0.75960965  0.87827050  0.62447875    -0.14530
C822        C  0.73451031  0.85781454  0.60390910    -0.29710
H823        H  0.75013859  0.89914951  0.64457705     0.14490
H824        H  0.74400185  0.83673811  0.58403528     0.15060
C825        C  0.98632029  0.87383727  0.61074823    -0.14530
C826        C  0.01076546  0.89206777  0.63378963    -0.29710
H827        H  0.99759216  0.85521713  0.58937470     0.14490
H828        H  0.00141286  0.91231886  0.65453125     0.15060
C829        C  0.87617726  0.75958435  0.64018142    -0.14530
C830        C  0.85597648  0.73285580  0.62261353    -0.29710
H831        H  0.89808304  0.75260336  0.66005225     0.14490
H832        H  0.83267930  0.74006998  0.60446220     0.15060
C833        C  0.88329611  0.63641317  0.22697948    -0.15010
C834        C  0.86254338  0.61752852  0.25206101    -0.29710
H835        H  0.90466177  0.65629531  0.23640535     0.14490
H836        H  0.84092943  0.59797054  0.24250588     0.15060
C837        C  0.86149915  0.60465581  0.47542293    -0.14530
C838        C  0.87806777  0.62848803  0.50020688    -0.29710
H839        H  0.84408310  0.58166466  0.48460341     0.14490
H840        H  0.89454583  0.65145730  0.48931555     0.15060
C841        C  0.98360967  0.56592044  0.35276993    -0.14530
C842        C  0.00921635  0.56686575  0.38016634    -0.29710
H843        H  0.99297281  0.56493513  0.32392869     0.14490
H844        H  0.99945247  0.56892787  0.40884031     0.15060
C845        C  0.99623491  0.87725647  0.37117035    -0.14530
C846        C  0.02036863  0.89380985  0.34750673    -0.29710
H847        H  0.00791571  0.86072140  0.39352258     0.14490
H848        H  0.01048554  0.91118902  0.32502787     0.15060
C849        C  0.88225444  0.92584134  0.48231925    -0.14530
C850        C  0.85409199  0.91716061  0.50500998    -0.29710
H851        H  0.90948286  0.93344884  0.49407991     0.14490
H852        H  0.82794352  0.90737938  0.49223203     0.15060
C853        C  0.88318966  0.76053570  0.35241872    -0.14530
C854        C  0.86420847  0.73563446  0.37247726    -0.29710
H855        H  0.90166630  0.75148454  0.33008975     0.14490
H856        H  0.84361316  0.74472655  0.39283679     0.15060
C857        C  0.27118820  0.87248273  0.38140934    -0.14530
C858        C  0.24593198  0.89217273  0.36148734    -0.29710
H859        H  0.26176216  0.85102226  0.40028451     0.14490
H860        H  0.25547095  0.91269262  0.34164756     0.15060
C861        C  0.36935033  0.76041844  0.10400037    -0.14530
C862        C  0.38966582  0.73511710  0.12311413    -0.29710
H863        H  0.34760531  0.75098596  0.08451683     0.14490
H864        H  0.41095245  0.74438631  0.14316080     0.15060
C865        C  0.37568185  0.89043992  0.22694004    -0.14530
C866        C  0.36506334  0.86437797  0.25101444    -0.29710
H867        H  0.38729029  0.91686687  0.23717641     0.14490
H868        H  0.35672682  0.83663491  0.24121020     0.15060
C869        C  0.63650388  0.76033480  0.10970123    -0.14530
C870        C  0.61532549  0.73566976  0.12881653    -0.29710
H871        H  0.65710751  0.75048798  0.08972785     0.14490
H872        H  0.59474908  0.74553944  0.14879914     0.15060
C873        C  0.49004989  0.87849133  0.06090563    -0.14530
C874        C  0.51512379  0.85225943  0.06847886    -0.29710
H875        H  0.49945448  0.90635397  0.05378607     0.14490
H876        H  0.50480677  0.82511632  0.07706202     0.15060
C877        C  0.74310916  0.86502167  0.37874181    -0.14530
C878        C  0.76871821  0.88542986  0.35985898    -0.29710
H879        H  0.75234666  0.84382329  0.39795171     0.14490
H880        H  0.75960556  0.90615710  0.34007962     0.15060
C881        C  0.51945955  0.85157694  0.38980150    -0.14530
C882        C  0.49474047  0.85406743  0.36120334    -0.29710
H883        H  0.50997562  0.84862435  0.41835048     0.14490
H884        H  0.50605683  0.85697509  0.33324220     0.15060
C885        C  0.62747140  0.85784950  0.25472059    -0.14530
C886        C  0.64483254  0.87967430  0.23016969    -0.29710
H887        H  0.60938672  0.83502675  0.24508521     0.14490
H888        H  0.66506213  0.90075644  0.23949742     0.15060
C889        C  0.61994512  0.98793326  0.41183386    -0.14530
C890        C  0.59451580  0.00947605  0.39549539    -0.29710
H891        H  0.64324688  0.99999022  0.42776722     0.14490
H892        H  0.57229823  0.99613169  0.37893231     0.15060
C893        C  0.62938344  0.23497846  0.10370484    -0.14530
C894        C  0.61038601  0.26108608  0.12369052    -0.29710
H895        H  0.65038168  0.24340569  0.08366584     0.14490
H896        H  0.58964447  0.25266278  0.14399209     0.15060
C897        C  0.63653846  0.98442610  0.09898103    -0.14530
C898        C  0.61664301  0.00893710  0.11970833    -0.29710
H899        H  0.65692046  0.99395314  0.07884034     0.14490
H900        H  0.59704094  0.99794836  0.13992939     0.15060
C901        C  0.64773537  0.12956865  0.22654309    -0.14530
C902        C  0.62992715  0.15003072  0.25239312    -0.29710
H903        H  0.66804560  0.10877799  0.23469974     0.14490
H904        H  0.61114235  0.17217013  0.24418360     0.15060
C905        C  0.38283429  0.26035849  0.13354299    -0.14530
C906        C  0.36185457  0.23414680  0.11496015    -0.29710
H907        H  0.40577674  0.25214288  0.15163049     0.14490
H908        H  0.33925891  0.24240451  0.09645376     0.15060
C909        C  0.38644314  0.00910350  0.10908094    -0.14530
C910        C  0.36068520  0.98393088  0.09635362    -0.29710
H911        H  0.41227850  0.99866732  0.12109666     0.14490
H912        H  0.33443055  0.99266925  0.08393792     0.15060
C913        C  0.48536376  0.14119641  0.06640657    -0.14530
C914        C  0.50993120  0.11351503  0.06301587    -0.29710
H915        H  0.49624608  0.16933123  0.07110232     0.14490
H916        H  0.49952753  0.08498928  0.06046536     0.15060
C917        C  0.50648917  0.13731876  0.36061972    -0.14530
C918        C  0.48308156  0.14452968  0.38921425    -0.29710
H919        H  0.49406177  0.12933154  0.33373084     0.14490
H920        H  0.49358882  0.15308408  0.41663118     0.15060
C921        C  0.40730681  0.99055705  0.40683928    -0.14530
C922        C  0.37936717  0.01230233  0.41853006    -0.29710
H923        H  0.43131359  0.00387283  0.39388479     0.14490
H924        H  0.35416226  0.00023165  0.43033273     0.15060
C925        C  0.37624612  0.13882753  0.25777713    -0.14530
C926        C  0.35837965  0.11772877  0.23191936    -0.29710
H927        H  0.39486133  0.16135062  0.24958979     0.14490
H928        H  0.33769272  0.09699903  0.23992133     0.15060
C929        C  0.86474276  0.38879088  0.73270087    -0.14530
C930        C  0.88275078  0.36693131  0.75761728    -0.29710
H931        H  0.84772758  0.41190552  0.74244408     0.14490
H932        H  0.89978230  0.34390332  0.74767296     0.15060
C933        C  0.76189625  0.11035028  0.61953954    -0.14530
C934        C  0.73653216  0.12908430  0.59866709    -0.29710
H935        H  0.75245787  0.09317716  0.64237985     0.14490
H936        H  0.74571390  0.14651554  0.57592931     0.15060
C937        C  0.86058293  0.23669573  0.63802154    -0.14530
C938        C  0.84276414  0.26032236  0.61551324    -0.29710
H939        H  0.87717385  0.24727071  0.66160867     0.14490
H940        H  0.82456829  0.25022630  0.59296352     0.15060
C941        C  0.75729276  0.10800670  0.36025670    -0.14530
C942        C  0.73164727  0.12676662  0.38093032    -0.29710
H943        H  0.74823600  0.08828412  0.33851935     0.14490
H944        H  0.74073954  0.14716658  0.40201747     0.15060
C945        C  0.87917179  0.07880455  0.47882799    -0.14530
C946        C  0.90352358  0.09663402  0.50154442    -0.29710
H947        H  0.85698011  0.06126259  0.48972014     0.14490
H948        H  0.92449097  0.11485969  0.48929027     0.15060
C949        C  0.86554366  0.38688316  0.25535102    -0.14530
C950        C  0.88570879  0.36838753  0.22898929    -0.29710
H951        H  0.84547973  0.40785470  0.24716175     0.14490
H952        H  0.90542509  0.34710873  0.23722332     0.15060
C953        C  0.86285463  0.39339770  0.50704031    -0.14530
C954        C  0.88840862  0.38023413  0.48249791    -0.29710
H955        H  0.83770043  0.40704406  0.49724814     0.14490
H956        H  0.91312068  0.36676986  0.49370427     0.15060
C957        C  0.85050455  0.26252565  0.36770050    -0.14530
C958        C  0.86703121  0.23643773  0.34638322    -0.29710
H959        H  0.83030165  0.25480956  0.38883463     0.14490
H960        H  0.88548787  0.24438870  0.32380650     0.15060
C961        C  0.11105323  0.36907122  0.75513075    -0.14530
C962        C  0.13193663  0.38938568  0.73117363    -0.29710
H963        H  0.09162734  0.34789400  0.74437751     0.14490
H964        H  0.15208198  0.40989017  0.74190500     0.15060
C965        C  0.99059603  0.38930253  0.63612347    -0.14530
C966        C  0.01333041  0.41155115  0.61696681    -0.29710
H967        H  0.00273561  0.36728567  0.65280293     0.14490
H968        H  0.00285509  0.43355757  0.59936295     0.15060
C969        C  0.23665222  0.10886047  0.62077834    -0.14530
C970        C  0.26200569  0.12835405  0.60054831    -0.29710
H971        H  0.24612466  0.08898505  0.64126392     0.14490
H972        H  0.25241753  0.14900722  0.58091635     0.15060
C973        C  0.01015290  0.13171601  0.62985048    -0.14530
C974        C  0.98483395  0.10527789  0.63929059    -0.29710
H975        H  0.99966907  0.15869946  0.62148776     0.14490
H976        H  0.99378923  0.07741712  0.64634502     0.15060
C977        C  0.13235345  0.23821930  0.63803350    -0.14530
C978        C  0.15142850  0.26271729  0.61748926    -0.29710
H979        H  0.11397173  0.24783414  0.66022137     0.14490
H980        H  0.17154787  0.25325790  0.59683102     0.15060
C981        C  0.12544567  0.38883337  0.25405625    -0.14530
C982        C  0.10502619  0.36964506  0.22778464    -0.29710
H983        H  0.14675196  0.40874146  0.24565930     0.14490
H984        H  0.08445973  0.34897236  0.23614484     0.15060
C985        C  0.12024724  0.37070007  0.48062103    -0.14530
C986        C  0.14141583  0.39100157  0.50514778    -0.29710
H987        H  0.10063213  0.35042434  0.49169595     0.14490
H988        H  0.16121959  0.41182240  0.49558319     0.15060
C989        C  0.98592746  0.42392148  0.34681989    -0.14530
C990        C  0.01112719  0.43005408  0.37403100    -0.29710
H991        H  0.99627673  0.41613395  0.31924844     0.14490
H992        H  0.00162538  0.43598713  0.40228956     0.15060
C993        C  0.25946443  0.13396487  0.37455902    -0.14530
C994        C  0.23431691  0.11309675  0.35450319    -0.29710
H995        H  0.24996343  0.15629557  0.39299802     0.14490
H996        H  0.24369647  0.09074124  0.33603387     0.15060
C997        C  0.00936388  0.10458349  0.35144689    -0.14530
C998        C  0.98489842  0.12611672  0.37041786    -0.29710
H999        H  0.99969053  0.08345066  0.33141378     0.14490
H1000       H  0.99622712  0.14721859  0.38970252     0.15060
C1001       C  0.14021417  0.09038292  0.47859969    -0.14530
C1002       C  0.11398089  0.07956573  0.50259470    -0.29710
H1003       H  0.16570149  0.10340560  0.48977799     0.14490
H1004       H  0.08728341  0.06830230  0.49268829     0.15060
C1005       C  0.11678180  0.23660145  0.34198219    -0.14530
C1006       C  0.13764489  0.26218227  0.36053616    -0.29710
H1007       H  0.09569071  0.24478878  0.32174280     0.14490
H1008       H  0.16030872  0.25369495  0.37889428     0.15060
loop_ 
_geom_bond_atom_site_label_1 
_geom_bond_atom_site_label_2 
_geom_bond_distance 
_geom_bond_site_symmetry_2 
_ccdc_geom_bond_type 
In1           O3   2.251       .  S
In1           O4   2.192       .  S
In1          O12   2.203       .  S
In1           O6   2.275       .  S
In1           O8   2.299       .  S
In1           O9   2.196       .  S
In1          O10   2.202       .  S
In1          O13   2.245       .  S
C2            O8   1.272       .  A
C2           O10   1.262       .  A
C2          C997   1.496       .  S
O3           C11   1.264       .  A
O4           C11   1.261       .  A
C5           O12   1.256       .  A
C5            O6   1.273       .  A
C5          C994   1.478       .  S
C7            O9   1.262       .  A
C7           O13   1.265       .  A
C7         C1005   1.459       .  S
C11        C1001   1.454       .  S
In14         O16   2.242       .  S
In14         O17   2.182       .  S
In14         O25   2.205       .  S
In14         O19   2.266       .  S
In14         O21   2.301       .  S
In14         O22   2.197       .  S
In14         O23   2.181       .  S
In14         O26   2.226       .  S
C15          O21   1.277       .  A
C15          O23   1.262       .  A
C15         C985   1.481       .  S
O16          C24   1.267       .  A
O17          C24   1.266       .  A
C18          O25   1.260       .  A
C18          O19   1.277       .  A
C18         C981   1.481       .  S
C20          O22   1.266       .  A
C20          O26   1.268       .  A
C20        C1006   1.459       .  S
C24         C990   1.460       .  S
In27         O29   2.237       .  S
In27         O30   2.199       .  S
In27         O38   2.210       .  S
In27         O32   2.284       .  S
In27         O34   2.314       .  S
In27         O35   2.180       .  S
In27         O36   2.192       .  S
In27         O39   2.255       .  S
C28          O34   1.276       .  A
C28          O36   1.260       .  A
C28         C973   1.485       .  S
O29          C37   1.268       .  A
O30          C37   1.264       .  A
C31          O38   1.258       .  A
C31          O32   1.277       .  A
C31         C969   1.487       .  S
C33          O35   1.263       .  A
C33          O39   1.266       .  A
C33        C1002   1.461       .  S
C37         C977   1.461       .  S
In40         O42   2.261       .  S
In40         O43   2.162       .  S
In40         O51   2.193       .  S
In40         O45   2.300       .  S
In40         O47   2.278       .  S
In40         O48   2.198       .  S
In40         O49   2.210       .  S
In40         O52   2.247       .  S
C41          O47   1.275       .  A
C41          O49   1.257       .  A
C41         C962   1.482       .  S
O42          C50   1.265       .  A
O43          C50   1.263       .  A
C44          O51   1.261       .  A
C44          O45   1.274       .  A
C44         C986   1.496       .  S
C46          O48   1.261       .  A
C46          O52   1.266       .  A
C46         C978   1.461       .  S
C50         C966   1.462       .  S
In53         O55   2.236       .  S
In53         O56   2.185       .  S
In53         O64   2.198       .  S
In53         O58   2.307       .  S
In53         O60   2.268       .  S
In53         O61   2.196       .  S
In53         O62   2.203       .  S
In53         O65   2.233       .  S
C54          O60   1.279       .  A
C54          O62   1.261       .  A
C54         C949   1.483       .  S
O55          C63   1.268       .  A
O56          C63   1.266       .  A
C57          O64   1.263       .  A
C57          O58   1.276       .  A
C57         C954   1.488       .  S
C59          O61   1.266       .  A
C59          O65   1.267       .  A
C59         C957   1.460       .  S
C63         C989   1.456       .  S
In66         O68   2.233       .  S
In66         O69   2.194       .  S
In66         O77   2.199       .  S
In66         O71   2.264       .  S
In66         O73   2.310       .  S
In66         O74   2.163       .  S
In66         O75   2.179       .  S
In66         O78   2.250       .  S
C67          O73   1.278       .  A
C67          O75   1.260       .  A
C67         C998   1.482       .  S
O68          C76   1.268       .  A
O69          C76   1.265       .  A
C70          O77   1.260       .  A
C70          O71   1.278       .  A
C70         C941   1.480       .  S
C72          O74   1.265       .  A
C72          O78   1.267       .  A
C72         C945   1.459       .  S
C76         C958   1.461       .  S
In79         O81   2.247       .  S
In79         O82   2.187       .  S
In79         O90   2.224       .  S
In79         O84   2.263       .  S
In79         O86   2.306       .  S
In79         O87   2.201       .  S
In79         O88   2.206       .  S
In79         O91   2.232       .  S
C80          O86   1.272       .  A
C80          O88   1.259       .  A
C80         C974   1.499       .  S
O81          C89   1.264       .  A
O82          C89   1.259       .  A
C83          O90   1.258       .  A
C83          O84   1.274       .  A
C83         C933   1.480       .  S
C85          O87   1.263       .  A
C85          O91   1.266       .  A
C85         C937   1.458       .  S
C89         C946   1.452       .  S
In92         O94   2.257       .  S
In92         O95   2.164       .  S
In92        O103   2.212       .  S
In92         O97   2.292       .  S
In92         O99   2.307       .  S
In92        O100   2.180       .  S
In92        O101   2.219       .  S
In92        O104   2.259       .  S
C93          O99   1.272       .  A
C93         O101   1.260       .  A
C93         C953   1.499       .  S
O94         C102   1.267       .  A
O95         C102   1.258       .  A
C96         O103   1.253       .  A
C96          O97   1.274       .  A
C96         C929   1.485       .  S
C98         O100   1.258       .  A
C98         O104   1.266       .  A
C98         C938   1.457       .  S
C102        C965   1.448       .  S
In105       O107   2.257       .  S
In105       O108   2.188       .  S
In105       O116   2.213       .  S
In105       O110   2.259       .  S
In105       O112   2.301       .  S
In105       O113   2.205       .  S
In105       O114   2.192       .  S
In105       O117   2.230       .  S
C106        O112   1.273       .  A
C106        O114   1.260       .  A
C106        C918   1.491       .  S
O107        C115   1.263       .  A
O108        C115   1.262       .  A
C109        O116   1.259       .  A
C109        O110   1.274       .  A
C109        C993   1.477       .  S
C111        O113   1.264       .  A
C111        O117   1.265       .  A
C111        C925   1.458       .  S
C115        C922   1.464       .  S
In118       O120   2.244       .  S
In118       O121   2.188       .  S
In118       O129   2.198       .  S
In118       O123   2.261       .  S
In118       O125   2.307       .  S
In118       O126   2.195       .  S
In118       O127   2.176       .  S
In118       O130   2.230       .  S
C119        O125   1.276       .  A
C119        O127   1.261       .  A
C119        C909   1.480       .  S
O120        C128   1.268       .  A
O121        C128   1.265       .  A
C122        O129   1.260       .  A
C122        O123   1.278       .  A
C122        C906   1.478       .  S
C124        O126   1.265       .  A
C124        O130   1.267       .  A
C124        C926   1.459       .  S
C128        C913   1.458       .  S
In131       O133   2.240       .  S
In131       O134   2.189       .  S
In131       O142   2.182       .  S
In131       O136   2.295       .  S
In131       O138   2.260       .  S
In131       O139   2.191       .  S
In131       O140   2.203       .  S
In131       O143   2.226       .  S
C132        O138   1.278       .  A
C132        O140   1.261       .  A
C132        C893   1.480       .  S
O133        C141   1.267       .  A
O134        C141   1.266       .  A
C135        O142   1.263       .  A
C135        O136   1.278       .  A
C135        C898   1.481       .  S
C137        O139   1.268       .  A
C137        O143   1.268       .  A
C137        C901   1.458       .  S
C141        C914   1.461       .  S
In144       O146   2.232       .  S
In144       O147   2.192       .  S
In144       O155   2.209       .  S
In144       O149   2.262       .  S
In144       O151   2.308       .  S
In144       O152   2.181       .  S
In144       O153   2.180       .  S
In144       O156   2.248       .  S
C145        O151   1.276       .  A
C145        O153   1.258       .  A
C145        C917   1.479       .  S
O146        C154   1.267       .  A
O147        C154   1.265       .  A
C148        O155   1.260       .  A
C148        O149   1.276       .  A
C148        C942   1.479       .  S
C150        O152   1.261       .  A
C150        O156   1.265       .  A
C150        C890   1.452       .  S
C154        C902   1.459       .  S
In157       O159   2.261       .  S
In157       O160   2.181       .  S
In157       O168   2.223       .  S
In157       O162   2.269       .  S
In157       O164   2.309       .  S
In157       O165   2.204       .  S
In157       O166   2.209       .  S
In157       O169   2.236       .  S
C158        O164   1.272       .  A
C158        O166   1.259       .  A
C158        C881   1.495       .  S
O159        C167   1.262       .  A
O160        C167   1.261       .  A
C161        O168   1.258       .  A
C161        O162   1.273       .  A
C161        C877   1.481       .  S
C163        O165   1.263       .  A
C163        O169   1.266       .  A
C163        C885   1.460       .  S
C167        C889   1.463       .  S
In170       O172   2.245       .  S
In170       O173   2.198       .  S
In170       O181   2.205       .  S
In170       O175   2.267       .  S
In170       O177   2.294       .  S
In170       O178   2.202       .  S
In170       O179   2.200       .  S
In170       O182   2.236       .  S
C171        O177   1.273       .  A
C171        O179   1.262       .  A
C171        C897   1.494       .  S
O172        C180   1.264       .  A
O173        C180   1.263       .  A
C174        O181   1.258       .  A
C174        O175   1.275       .  A
C174        C869   1.479       .  S
C176        O178   1.264       .  A
C176        O182   1.265       .  A
C176        C886   1.459       .  S
C180        C874   1.458       .  S
In183       O185   2.244       .  S
In183       O186   2.193       .  S
In183       O194   2.226       .  S
In183       O188   2.269       .  S
In183       O190   2.313       .  S
In183       O191   2.190       .  S
In183       O192   2.183       .  S
In183       O195   2.257       .  S
C184        O190   1.274       .  A
C184        O192   1.258       .  A
C184        C910   1.497       .  S
O185        C193   1.265       .  A
O186        C193   1.259       .  A
C187        O194   1.259       .  A
C187        O188   1.273       .  A
C187        C861   1.482       .  S
C189        O191   1.261       .  A
C189        O195   1.264       .  A
C189        C873   1.461       .  S
C193        C865   1.451       .  S
In196       O198   2.242       .  S
In196       O199   2.185       .  S
In196       O207   2.212       .  S
In196       O201   2.269       .  S
In196       O203   2.323       .  S
In196       O204   2.190       .  S
In196       O205   2.197       .  S
In196       O208   2.256       .  S
C197        O203   1.273       .  A
C197        O205   1.255       .  A
C197        C882   1.484       .  S
O198        C206   1.268       .  A
O199        C206   1.266       .  A
C200        O207   1.259       .  A
C200        O201   1.275       .  A
C200        C857   1.481       .  S
C202        O204   1.259       .  A
C202        O208   1.264       .  A
C202        C921   1.455       .  S
C206        C866   1.466       .  S
In209       O211   2.252       .  S
In209       O212   2.184       .  S
In209       O220   2.205       .  S
In209       O214   2.277       .  S
In209       O216   2.311       .  S
In209       O217   2.197       .  S
In209       O218   2.174       .  S
In209       O221   2.235       .  S
C210        O216   1.277       .  A
C210        O218   1.261       .  A
C210        C845   1.481       .  S
O211        C219   1.266       .  A
O212        C219   1.264       .  A
C213        O220   1.258       .  A
C213        O214   1.276       .  A
C213        C878   1.483       .  S
C215        O217   1.264       .  A
C215        O221   1.267       .  A
C215        C853   1.461       .  S
C219        C849   1.462       .  S
In222       O224   2.246       .  S
In222       O225   2.203       .  S
In222       O233   2.210       .  S
In222       O227   2.256       .  S
In222       O229   2.296       .  S
In222       O230   2.210       .  S
In222       O231   2.195       .  S
In222       O234   2.228       .  S
C223        O229   1.273       .  A
C223        O231   1.262       .  A
C223        C837   1.493       .  S
O224        C232   1.263       .  A
O225        C232   1.264       .  A
C226        O233   1.260       .  A
C226        O227   1.274       .  A
C226        C834   1.476       .  S
C228        O230   1.265       .  A
C228        O234   1.265       .  A
C228        C854   1.459       .  S
C232        C841   1.462       .  S
In235       O237   2.234       .  S
In235       O238   2.191       .  S
In235       O246   2.187       .  S
In235       O240   2.260       .  S
In235       O242   2.299       .  S
In235       O243   2.187       .  S
In235       O244   2.175       .  S
In235       O247   2.244       .  S
C236        O242   1.276       .  A
C236        O244   1.262       .  A
C236        C825   1.477       .  S
O237        C245   1.267       .  A
O238        C245   1.266       .  A
C239        O246   1.260       .  A
C239        O240   1.278       .  A
C239        C821   1.476       .  S
C241        O243   1.265       .  A
C241        O247   1.268       .  A
C241        C850   1.457       .  S
C245        C829   1.459       .  S
In248       O250   2.223       .  S
In248       O251   2.195       .  S
In248       O259   2.206       .  S
In248       O253   2.260       .  S
In248       O255   2.298       .  S
In248       O256   2.188       .  S
In248       O257   2.178       .  S
In248       O260   2.239       .  S
C249        O255   1.278       .  A
C249        O257   1.262       .  A
C249        C838   1.479       .  S
O250        C258   1.269       .  A
O251        C258   1.268       .  A
C252        O259   1.262       .  A
C252        O253   1.277       .  A
C252        C813   1.481       .  S
C254        O256   1.266       .  A
C254        O260   1.267       .  A
C254        C817   1.458       .  S
C258        C830   1.459       .  S
In261       O263   2.241       .  S
In261       O264   2.205       .  S
In261       O272   2.224       .  S
In261       O266   2.260       .  S
In261       O268   2.314       .  S
In261       O269   2.200       .  S
In261       O270   2.190       .  S
In261       O273   2.258       .  S
C262        O268   1.271       .  A
C262        O270   1.257       .  A
C262        C805   1.495       .  S
O263        C271   1.266       .  A
O264        C271   1.261       .  A
C265        O272   1.259       .  A
C265        O266   1.271       .  A
C265        C801   1.477       .  S
C267        O269   1.259       .  A
C267        O273   1.262       .  A
C267        C842   1.459       .  S
C271        C809   1.456       .  S
In274       O276   2.259       .  S
In274       O277   2.185       .  S
In274       O285   2.217       .  S
In274       O279   2.267       .  S
In274       O281   2.322       .  S
In274       O282   2.166       .  S
In274       O283   2.186       .  S
In274       O286   2.269       .  S
C275        O281   1.273       .  A
C275        O283   1.256       .  A
C275        C846   1.498       .  S
O276        C284   1.267       .  A
O277        C284   1.260       .  A
C278        O285   1.258       .  A
C278        O279   1.273       .  A
C278        C858   1.480       .  S
C280        O282   1.260       .  A
C280        O286   1.265       .  A
C280        C797   1.463       .  S
C284        C810   1.465       .  S
In287       O289   2.255       .  S
In287       O290   2.184       .  S
In287       O298   2.211       .  S
In287       O292   2.261       .  S
In287       O294   2.305       .  S
In287       O295   2.196       .  S
In287       O296   2.180       .  S
In287       O299   2.240       .  S
C288        O294   1.274       .  A
C288        O296   1.259       .  A
C288        C826   1.492       .  S
O289        C297   1.265       .  A
O290        C297   1.258       .  A
C291        O298   1.258       .  A
C291        O292   1.273       .  A
C291        C790   1.476       .  S
C293        O295   1.262       .  A
C293        O299   1.265       .  A
C293        C793   1.459       .  S
C297        C798   1.453       .  S
In300       O302   2.243       .  S
In300       O303   2.184       .  S
In300       O311   2.192       .  S
In300       O305   2.254       .  S
In300       O307   2.304       .  S
In300       O308   2.191       .  S
In300       O309   2.170       .  S
In300       O312   2.227       .  S
C301        O307   1.278       .  A
C301        O309   1.262       .  A
C301        C806   1.478       .  S
O302        C310   1.268       .  A
O303        C310   1.266       .  A
C304        O311   1.262       .  A
C304        O305   1.279       .  A
C304        C785   1.477       .  S
C306        O308   1.267       .  A
C306        O312   1.268       .  A
C306        C794   1.458       .  S
C310        C818   1.460       .  S
In313       O315   2.256       .  S
In313       O316   2.158       .  S
In313       O324   2.191       .  S
In313       O318   2.266       .  S
In313       O320   2.309       .  S
In313       O321   2.189       .  S
In313       O322   2.166       .  S
In313       O325   2.241       .  S
C314        O320   1.277       .  A
C314        O322   1.258       .  A
C314        C774   1.476       .  S
O315        C323   1.267       .  A
O316        C323   1.264       .  A
C317        O324   1.259       .  A
C317        O318   1.277       .  A
C317        C789   1.478       .  S
C319        O321   1.262       .  A
C319        O325   1.267       .  A
C319        C781   1.459       .  S
C323        C777   1.461       .  S
In326       O328   2.250       .  S
In326       O329   2.188       .  S
In326       O337   2.209       .  S
In326       O331   2.267       .  S
In326       O333   2.294       .  S
In326       O334   2.201       .  S
In326       O335   2.192       .  S
In326       O338   2.231       .  S
C327        O333   1.274       .  A
C327        O335   1.262       .  A
C327        C765   1.493       .  S
O328        C336   1.265       .  A
O329        C336   1.263       .  A
C330        O337   1.258       .  A
C330        O331   1.274       .  A
C330        C761   1.478       .  S
C332        O334   1.264       .  A
C332        O338   1.265       .  A
C332        C782   1.458       .  S
C336        C769   1.459       .  S
In339       O341   2.240       .  S
In339       O342   2.194       .  S
In339       O350   2.230       .  S
In339       O344   2.275       .  S
In339       O346   2.313       .  S
In339       O347   2.187       .  S
In339       O348   2.206       .  S
In339       O351   2.252       .  S
C340        O346   1.271       .  A
C340        O348   1.257       .  A
C340        C753   1.500       .  S
O341        C349   1.267       .  A
O342        C349   1.263       .  A
C343        O350   1.257       .  A
C343        O344   1.273       .  A
C343        C970   1.485       .  S
C345        O347   1.257       .  A
C345        O351   1.263       .  A
C345        C778   1.451       .  S
C349        C757   1.459       .  S
In352       O354   2.224       .  S
In352       O355   2.194       .  S
In352       O363   2.209       .  S
In352       O357   2.257       .  S
In352       O359   2.294       .  S
In352       O360   2.187       .  S
In352       O361   2.180       .  S
In352       O364   2.238       .  S
C353        O359   1.278       .  A
C353        O361   1.263       .  A
C353        C766   1.479       .  S
O354        C362   1.268       .  A
O355        C362   1.268       .  A
C356        O363   1.262       .  A
C356        O357   1.277       .  A
C356        C746   1.480       .  S
C358        O360   1.266       .  A
C358        O364   1.267       .  A
C358        C750   1.458       .  S
C362        C758   1.458       .  S
In365       O367   2.245       .  S
In365       O368   2.195       .  S
In365       O376   2.211       .  S
In365       O370   2.284       .  S
In365       O372   2.303       .  S
In365       O373   2.189       .  S
In365       O374   2.219       .  S
In365       O377   2.247       .  S
C366        O372   1.273       .  A
C366        O374   1.262       .  A
C366        C737   1.500       .  S
O367        C375   1.265       .  A
O368        C375   1.261       .  A
C369        O376   1.256       .  A
C369        O370   1.274       .  A
C369        C733   1.484       .  S
C371        O373   1.261       .  A
C371        O377   1.265       .  A
C371        C770   1.454       .  S
C375        C741   1.459       .  S
In378       O380   2.243       .  S
In378       O381   2.200       .  S
In378       O389   2.204       .  S
In378       O383   2.269       .  S
In378       O385   2.302       .  S
In378       O386   2.165       .  S
In378       O387   2.179       .  S
In378       O390   2.270       .  S
C379        O385   1.273       .  A
C379        O387   1.260       .  A
C379        C773   1.494       .  S
O380        C388   1.265       .  A
O381        C388   1.260       .  A
C382        O389   1.256       .  A
C382        O383   1.273       .  A
C382        C822   1.475       .  S
C384        O386   1.261       .  A
C384        O390   1.265       .  A
C384        C729   1.464       .  S
C388        C742   1.459       .  S
In391       O393   2.268       .  S
In391       O394   2.164       .  S
In391       O402   2.199       .  S
In391       O396   2.292       .  S
In391       O398   2.324       .  S
In391       O399   2.181       .  S
In391       O400   2.194       .  S
In391       O403   2.255       .  S
C392        O398   1.274       .  A
C392        O400   1.258       .  A
C392        C754   1.484       .  S
O393        C401   1.266       .  A
O394        C401   1.256       .  A
C395        O402   1.254       .  A
C395        O396   1.275       .  A
C395        C934   1.484       .  S
C397        O399   1.259       .  A
C397        O403   1.268       .  A
C397        C725   1.460       .  S
C401        C730   1.451       .  S
In404       O406   2.235       .  S
In404       O407   2.185       .  S
In404       O415   2.199       .  S
In404       O409   2.262       .  S
In404       O411   2.308       .  S
In404       O412   2.197       .  S
In404       O413   2.198       .  S
In404       O416   2.226       .  S
C405        O411   1.277       .  A
C405        O413   1.263       .  A
C405        C738   1.489       .  S
O406        C414   1.268       .  A
O407        C414   1.267       .  A
C408        O415   1.262       .  A
C408        O409   1.279       .  A
C408        C721   1.481       .  S
C410        O412   1.267       .  A
C410        O416   1.268       .  A
C410        C726   1.459       .  S
C414        C749   1.458       .  S
In417       O419   2.247       .  S
In417       O420   2.192       .  S
In417       O428   2.206       .  S
In417       O422   2.273       .  S
In417       O424   2.301       .  S
In417       O425   2.194       .  S
In417       O426   2.203       .  S
In417       O429   2.243       .  S
C418        O424   1.272       .  A
C418        O426   1.261       .  A
C418        C709   1.496       .  S
O419        C427   1.264       .  A
O420        C427   1.261       .  A
C421        O428   1.256       .  A
C421        O422   1.274       .  A
C421        C762   1.478       .  S
C423        O425   1.261       .  A
C423        O429   1.265       .  A
C423        C718   1.457       .  S
C427        C713   1.454       .  S
In430       O432   2.263       .  S
In430       O433   2.164       .  S
In430       O441   2.205       .  S
In430       O435   2.268       .  S
In430       O437   2.307       .  S
In430       O438   2.198       .  S
In430       O439   2.193       .  S
In430       O442   2.240       .  S
C431        O437   1.274       .  A
C431        O439   1.259       .  A
C431        C701   1.496       .  S
O432        C440   1.265       .  A
O433        C440   1.261       .  A
C434        O441   1.257       .  A
C434        O435   1.274       .  A
C434        C786   1.477       .  S
C436        O438   1.260       .  A
C436        O442   1.265       .  A
C436        C717   1.458       .  S
C440        C705   1.463       .  S
In443       O445   2.231       .  S
In443       O446   2.189       .  S
In443       O454   2.202       .  S
In443       O448   2.275       .  S
In443       O450   2.304       .  S
In443       O451   2.180       .  S
In443       O452   2.185       .  S
In443       O455   2.245       .  S
C444        O450   1.278       .  A
C444        O452   1.262       .  A
C444        C693   1.483       .  S
O445        C453   1.268       .  A
O446        C453   1.265       .  A
C447        O454   1.259       .  A
C447        O448   1.278       .  A
C447        C862   1.484       .  S
C449        O451   1.265       .  A
C449        O455   1.267       .  A
C449        C714   1.460       .  S
C453        C698   1.458       .  S
In456       O458   2.243       .  S
In456       O459   2.188       .  S
In456       O467   2.187       .  S
In456       O461   2.307       .  S
In456       O463   2.271       .  S
In456       O464   2.192       .  S
In456       O465   2.193       .  S
In456       O468   2.236       .  S
C457        O463   1.277       .  A
C457        O465   1.258       .  A
C457        C802   1.480       .  S
O458        C466   1.266       .  A
O459        C466   1.264       .  A
C460        O467   1.261       .  A
C460        O461   1.275       .  A
C460        C702   1.482       .  S
C462        O464   1.264       .  A
C462        O468   1.267       .  A
C462        C697   1.458       .  S
C466        C689   1.455       .  S
In469       O471   2.248       .  S
In469       O472   2.187       .  S
In469       O480   2.209       .  S
In469       O474   2.269       .  S
In469       O476   2.307       .  S
In469       O477   2.197       .  S
In469       O478   2.193       .  S
In469       O481   2.224       .  S
C470        O476   1.275       .  A
C470        O478   1.261       .  A
C470        C682   1.482       .  S
O471        C479   1.265       .  A
O472        C479   1.263       .  A
C473        O480   1.259       .  A
C473        O474   1.276       .  A
C473        C982   1.481       .  S
C475        O477   1.266       .  A
C475        O481   1.267       .  A
C475        C685   1.457       .  S
C479        C690   1.459       .  S
In482       O484   2.258       .  S
In482       O485   2.179       .  S
In482       O493   2.208       .  S
In482       O487   2.276       .  S
In482       O489   2.300       .  S
In482       O490   2.186       .  S
In482       O491   2.207       .  S
In482       O494   2.249       .  S
C483        O489   1.272       .  A
C483        O491   1.261       .  A
C483        C694   1.496       .  S
O484        C492   1.265       .  A
O485        C492   1.258       .  A
C486        O493   1.255       .  A
C486        O487   1.273       .  A
C486        C905   1.478       .  S
C488        O490   1.260       .  A
C488        O494   1.265       .  A
C488        C686   1.457       .  S
C492        C678   1.452       .  S
In495       O497   2.243       .  S
In495       O498   2.187       .  S
In495       O506   2.198       .  S
In495       O500   2.277       .  S
In495       O502   2.307       .  S
In495       O503   2.164       .  S
In495       O504   2.180       .  S
In495       O507   2.256       .  S
C496        O502   1.277       .  A
C496        O504   1.260       .  A
C496        C710   1.482       .  S
O497        C505   1.268       .  A
O498        C505   1.263       .  A
C499        O506   1.258       .  A
C499        O500   1.278       .  A
C499        C745   1.483       .  S
C501        O503   1.264       .  A
C501        O507   1.267       .  A
C501        C677   1.463       .  S
C505        C673   1.459       .  S
In508       O510   2.250       .  S
In508       O511   2.186       .  S
In508       O519   2.204       .  S
In508       O513   2.305       .  S
In508       O515   2.270       .  S
In508       O516   2.198       .  S
In508       O517   2.217       .  S
In508       O520   2.238       .  S
C509        O515   1.274       .  A
C509        O517   1.258       .  A
C509        C961   1.481       .  S
O510        C518   1.264       .  A
O511        C518   1.258       .  A
C512        O519   1.259       .  A
C512        O513   1.272       .  A
C512        C681   1.497       .  S
C514        O516   1.262       .  A
C514        O520   1.266       .  A
C514        C674   1.459       .  S
C518        C706   1.452       .  S
In521       O523   2.243       .  S
In521       O524   2.192       .  S
In521       O532   2.208       .  S
In521       O526   2.261       .  S
In521       O528   2.304       .  S
In521       O529   2.194       .  S
In521       O530   2.188       .  S
In521       O533   2.224       .  S
C522        O528   1.276       .  A
C522        O530   1.261       .  A
C522        C661   1.482       .  S
O523        C531   1.266       .  A
O524        C531   1.264       .  A
C525        O532   1.261       .  A
C525        O526   1.277       .  A
C525        C722   1.480       .  S
C527        O529   1.267       .  A
C527        O533   1.267       .  A
C527        C669   1.457       .  S
C531        C665   1.458       .  S
In534       O536   2.246       .  S
In534       O537   2.189       .  S
In534       O545   2.227       .  S
In534       O539   2.274       .  S
In534       O541   2.304       .  S
In534       O542   2.188       .  S
In534       O543   2.209       .  S
In534       O546   2.243       .  S
C535        O541   1.271       .  A
C535        O543   1.258       .  A
C535        C653   1.496       .  S
O536        C544   1.264       .  A
O537        C544   1.258       .  A
C538        O545   1.256       .  A
C538        O539   1.273       .  A
C538        C930   1.483       .  S
C540        O542   1.262       .  A
C540        O546   1.266       .  A
C540        C670   1.458       .  S
C544        C657   1.452       .  S
In547       O549   2.240       .  S
In547       O550   2.187       .  S
In547       O558   2.182       .  S
In547       O552   2.306       .  S
In547       O554   2.264       .  S
In547       O555   2.191       .  S
In547       O556   2.202       .  S
In547       O559   2.235       .  S
C548        O554   1.277       .  A
C548        O556   1.260       .  A
C548        C894   1.480       .  S
O549        C557   1.267       .  A
O550        C557   1.265       .  A
C551        O558   1.261       .  A
C551        O552   1.277       .  A
C551        C645   1.482       .  S
C553        O555   1.265       .  A
C553        O559   1.267       .  A
C553        C649   1.459       .  S
C557        C666   1.458       .  S
In560       O562   2.249       .  S
In560       O563   2.197       .  S
In560       O571   2.197       .  S
In560       O565   2.306       .  S
In560       O567   2.265       .  S
In560       O568   2.205       .  S
In560       O569   2.220       .  S
In560       O572   2.222       .  S
C561        O567   1.274       .  A
C561        O569   1.260       .  A
C561        C950   1.482       .  S
O562        C570   1.265       .  A
O563        C570   1.263       .  A
C564        O571   1.260       .  A
C564        O565   1.275       .  A
C564        C654   1.481       .  S
C566        O568   1.267       .  A
C566        O572   1.266       .  A
C566        C650   1.458       .  S
C570        C641   1.458       .  S
In573       O575   2.249       .  S
In573       O576   2.196       .  S
In573       O584   2.213       .  S
In573       O578   2.273       .  S
In573       O580   2.310       .  S
In573       O581   2.169       .  S
In573       O582   2.189       .  S
In573       O585   2.259       .  S
C574        O580   1.274       .  A
C574        O582   1.259       .  A
C574        C633   1.497       .  S
O575        C583   1.266       .  A
O576        C583   1.260       .  A
C577        O584   1.257       .  A
C577        O578   1.274       .  A
C577        C814   1.481       .  S
C579        O581   1.261       .  A
C579        O585   1.265       .  A
C579        C658   1.463       .  S
C583        C637   1.461       .  S
In586       O588   2.255       .  S
In586       O589   2.184       .  S
In586       O597   2.200       .  S
In586       O591   2.305       .  S
In586       O593   2.266       .  S
In586       O594   2.203       .  S
In586       O595   2.224       .  S
In586       O598   2.236       .  S
C587        O593   1.273       .  A
C587        O595   1.259       .  A
C587        C734   1.481       .  S
O588        C596   1.264       .  A
O589        C596   1.258       .  A
C590        O597   1.259       .  A
C590        O591   1.273       .  A
C590        C662   1.496       .  S
C592        O594   1.263       .  A
C592        O598   1.266       .  A
C592        C638   1.460       .  S
C596        C629   1.452       .  S
In599       O601   2.267       .  S
In599       O602   2.163       .  S
In599       O610   2.209       .  S
In599       O604   2.269       .  S
In599       O606   2.308       .  S
In599       O607   2.195       .  S
In599       O608   2.191       .  S
In599       O611   2.242       .  S
C600        O606   1.274       .  A
C600        O608   1.259       .  A
C600        C646   1.496       .  S
O601        C609   1.265       .  A
O602        C609   1.261       .  A
C603        O610   1.257       .  A
C603        O604   1.274       .  A
C603        C870   1.478       .  S
C605        O607   1.260       .  A
C605        O611   1.265       .  A
C605        C625   1.458       .  S
C609        C630   1.464       .  S
In612       O614   2.249       .  S
In612       O615   2.190       .  S
In612       O623   2.194       .  S
In612       O617   2.264       .  S
In612       O619   2.311       .  S
In612       O620   2.198       .  S
In612       O621   2.180       .  S
In612       O624   2.228       .  S
C613        O619   1.276       .  A
C613        O621   1.260       .  A
C613        C634   1.481       .  S
O614        C622   1.266       .  A
O615        C622   1.264       .  A
C616        O623   1.260       .  A
C616        O617   1.277       .  A
C616        C833   1.478       .  S
C618        O620   1.265       .  A
C618        O624   1.267       .  A
C618        C626   1.458       .  S
C622        C642   1.461       .  S
C625        C626   1.339       .  D
C625        H627   1.087       .  S
C626        H628   1.087       .  S
C629        C630   1.337   1_556  D
C629        H631   1.088       .  S
C630        H632   1.086   1_554  S
C633        C634   1.352   1_556  D
C633        H635   1.085       .  S
C634        H636   1.087   1_554  S
C637        C638   1.340       .  D
C637        H639   1.087       .  S
C638        H640   1.087       .  S
C641        C642   1.335       .  D
C641        H643   1.087       .  S
C642        H644   1.087       .  S
C645        C646   1.352       .  D
C645        H647   1.087       .  S
C646        H648   1.085       .  S
C649        C650   1.337       .  D
C649        H651   1.086       .  S
C650        H652   1.087       .  S
C653        C654   1.352   1_556  D
C653        H655   1.085       .  S
C654        H656   1.087   1_554  S
C657        C658   1.338       .  D
C657        H659   1.088       .  S
C658        H660   1.086       .  S
C661        C662   1.352       .  D
C661        H663   1.087       .  S
C662        H664   1.085       .  S
C665        C666   1.335   1_556  D
C665        H667   1.087       .  S
C666        H668   1.087   1_554  S
C669        C670   1.338       .  D
C669        H671   1.087       .  S
C670        H672   1.087       .  S
C673        C674   1.340       .  D
C673        H675   1.087       .  S
C674        H676   1.087       .  S
C677        C678   1.335   1_556  D
C677        H679   1.086       .  S
C678        H680   1.089   1_554  S
C681        C682   1.352   1_556  D
C681        H683   1.085       .  S
C682        H684   1.087   1_554  S
C685        C686   1.339       .  D
C685        H687   1.087       .  S
C686        H688   1.086       .  S
C689        C690   1.335       .  D
C689        H691   1.088       .  S
C690        H692   1.086       .  S
C693        C694   1.350       .  D
C693        H695   1.087       .  S
C694        H696   1.085       .  S
C697        C698   1.339       .  D
C697        H699   1.087       .  S
C698        H700   1.087       .  S
C701        C702   1.352   1_556  D
C701        H703   1.085       .  S
C702        H704   1.087   1_554  S
C705        C706   1.337       .  D
C705        H707   1.086       .  S
C706        H708   1.088       .  S
C709        C710   1.350       .  D
C709        H711   1.085       .  S
C710        H712   1.087       .  S
C713        C714   1.334   1_556  D
C713        H715   1.088       .  S
C714        H716   1.086   1_554  S
C717        C718   1.340       .  D
C717        H719   1.087       .  S
C718        H720   1.087       .  S
C721        C722   1.357       .  D
C721        H723   1.086       .  S
C722        H724   1.086       .  S
C725        C726   1.341       .  D
C725        H727   1.086       .  S
C726        H728   1.087       .  S
C729        C730   1.335   1_565  D
C729        H731   1.085       .  S
C730        H732   1.090   1_545  S
C733        C734   1.358       .  D
C733        H735   1.086       .  S
C734        H736   1.086       .  S
C737        C738   1.353   1_565  D
C737        H739   1.085       .  S
C738        H740   1.087   1_545  S
C741        C742   1.341       .  D
C741        H743   1.087       .  S
C742        H744   1.087       .  S
C745        C746   1.358       .  D
C745        H747   1.086       .  S
C746        H748   1.086       .  S
C749        C750   1.333       .  D
C749        H751   1.088       .  S
C750        H752   1.087       .  S
C753        C754   1.354       .  D
C753        H755   1.085       .  S
C754        H756   1.087       .  S
C757        C758   1.338       .  D
C757        H759   1.087       .  S
C758        H760   1.087       .  S
C761        C762   1.356       .  D
C761        H763   1.086       .  S
C762        H764   1.086       .  S
C765        C766   1.350   1_565  D
C765        H767   1.085       .  S
C766        H768   1.087   1_545  S
C769        C770   1.333       .  D
C769        H771   1.086       .  S
C770        H772   1.088       .  S
C773        C774   1.349       .  D
C773        H775   1.085       .  S
C774        H776   1.087       .  S
C777        C778   1.337   1_565  D
C777        H779   1.086       .  S
C778        H780   1.089   1_545  S
C781        C782   1.339       .  D
C781        H783   1.087       .  S
C782        H784   1.087       .  S
C785        C786   1.356       .  D
C785        H787   1.086       .  S
C786        H788   1.086       .  S
C789        C790   1.356       .  D
C789        H791   1.086       .  S
C790        H792   1.086       .  S
C793        C794   1.339       .  D
C793        H795   1.086       .  S
C794        H796   1.087       .  S
C797        C798   1.337       .  D
C797        H799   1.086       .  S
C798        H800   1.089       .  S
C801        C802   1.355       .  D
C801        H803   1.086       .  S
C802        H804   1.086       .  S
C805        C806   1.351       .  D
C805        H807   1.085       .  S
C806        H808   1.087       .  S
C809        C810   1.339       .  D
C809        H811   1.087       .  S
C810        H812   1.086       .  S
C813        C814   1.357       .  D
C813        H815   1.086       .  S
C814        H816   1.086       .  S
C817        C818   1.334   1_655  D
C817        H819   1.088   1_655  S
C818        H820   1.087       .  S
C821        C822   1.356       .  D
C821        H823   1.086       .  S
C822        H824   1.086       .  S
C825        C826   1.351   1_655  D
C825        H827   1.087       .  S
C826        H828   1.085       .  S
C829        C830   1.338       .  D
C829        H831   1.086       .  S
C830        H832   1.087       .  S
C833        C834   1.355       .  D
C833        H835   1.086       .  S
C834        H836   1.086       .  S
C837        C838   1.349       .  D
C837        H839   1.085       .  S
C838        H840   1.087       .  S
C841        C842   1.334   1_655  D
C841        H843   1.087       .  S
C842        H844   1.087   1_455  S
C845        C846   1.353   1_655  D
C845        H847   1.087   1_655  S
C846        H848   1.085       .  S
C849        C850   1.335       .  D
C849        H851   1.086       .  S
C850        H852   1.088       .  S
C853        C854   1.338       .  D
C853        H855   1.086       .  S
C854        H856   1.087       .  S
C857        C858   1.356       .  D
C857        H859   1.086       .  S
C858        H860   1.086       .  S
C861        C862   1.358       .  D
C861        H863   1.086       .  S
C862        H864   1.086       .  S
C865        C866   1.337       .  D
C865        H867   1.087       .  S
C866        H868   1.087       .  S
C869        C870   1.356       .  D
C869        H871   1.086       .  S
C870        H872   1.086       .  S
C873        C874   1.334       .  D
C873        H875   1.086       .  S
C874        H876   1.088       .  S
C877        C878   1.357       .  D
C877        H879   1.086       .  S
C878        H880   1.086       .  S
C881        C882   1.350       .  D
C881        H883   1.085       .  S
C882        H884   1.088       .  S
C885        C886   1.339       .  D
C885        H887   1.087       .  S
C886        H888   1.087       .  S
C889        C890   1.335   1_565  D
C889        H891   1.086       .  S
C890        H892   1.088   1_545  S
C893        C894   1.357       .  D
C893        H895   1.086       .  S
C894        H896   1.086       .  S
C897        C898   1.350   1_565  D
C897        H899   1.085       .  S
C898        H900   1.087   1_545  S
C901        C902   1.338       .  D
C901        H903   1.087       .  S
C902        H904   1.087       .  S
C905        C906   1.357       .  D
C905        H907   1.086       .  S
C906        H908   1.086       .  S
C909        C910   1.353   1_545  D
C909        H911   1.087   1_545  S
C910        H912   1.085       .  S
C913        C914   1.335       .  D
C913        H915   1.087       .  S
C914        H916   1.087       .  S
C917        C918   1.348       .  D
C917        H919   1.088       .  S
C918        H920   1.085       .  S
C921        C922   1.336   1_565  D
C921        H923   1.088   1_565  S
C922        H924   1.086       .  S
C925        C926   1.338       .  D
C925        H927   1.087       .  S
C926        H928   1.087       .  S
C929        C930   1.359       .  D
C929        H931   1.086       .  S
C930        H932   1.086       .  S
C933        C934   1.359       .  D
C933        H935   1.086       .  S
C934        H936   1.086       .  S
C937        C938   1.341       .  D
C937        H939   1.087       .  S
C938        H940   1.086       .  S
C941        C942   1.357       .  D
C941        H943   1.086       .  S
C942        H944   1.086       .  S
C945        C946   1.335       .  D
C945        H947   1.086       .  S
C946        H948   1.089       .  S
C949        C950   1.357       .  D
C949        H951   1.086       .  S
C950        H952   1.086       .  S
C953        C954   1.353       .  D
C953        H955   1.085       .  S
C954        H956   1.087       .  S
C957        C958   1.340       .  D
C957        H959   1.086       .  S
C958        H960   1.087       .  S
C961        C962   1.358       .  D
C961        H963   1.086       .  S
C962        H964   1.086       .  S
C965        C966   1.335   1_655  D
C965        H967   1.089   1_655  S
C966        H968   1.086       .  S
C969        C970   1.360       .  D
C969        H971   1.086       .  S
C970        H972   1.086       .  S
C973        C974   1.353   1_455  D
C973        H975   1.087   1_455  S
C974        H976   1.085       .  S
C977        C978   1.340       .  D
C977        H979   1.087       .  S
C978        H980   1.086       .  S
C981        C982   1.358       .  D
C981        H983   1.086       .  S
C982        H984   1.086       .  S
C985        C986   1.351       .  D
C985        H987   1.087       .  S
C986        H988   1.085       .  S
C989        C990   1.334   1_655  D
C989        H991   1.088       .  S
C990        H992   1.086       .  S
C993        C994   1.355       .  D
C993        H995   1.086       .  S
C994        H996   1.086       .  S
C997        C998   1.349   1_455  D
C997        H999   1.085   1_455  S
C998       H1000   1.087       .  S
C1001      C1002   1.335       .  D
C1001      H1003   1.088       .  S
C1002      H1004   1.086       .  S
C1005      C1006   1.339       .  D
C1005      H1007   1.086       .  S
C1006      H1008   1.087       .  S
