geometry optimzed in LAMMPS
_audit_creation_date              2020-11-30 
_audit_creation_method            'lammps2cif' 
_symmetry_space_group_name_H-M    'P1' 
_symmetry_Int_Tables_number       1 
_symmetry_cell_setting            triclinic 
loop_ 
_symmetry_equiv_pos_as_xyz 
  x,y,z 
_cell_length_a                    30.614917061398724 
_cell_length_b                    30.26332278779603 
_cell_length_c                    30.254744404278593 
_cell_angle_alpha                 90.12860061511428 
_cell_angle_beta                  89.84951967600476 
_cell_angle_gamma                 90.19644435722212 
loop_ 
_atom_site_label 
_atom_site_type_symbol 
_atom_site_fract_x 
_atom_site_fract_y 
_atom_site_fract_z 
_atom_site_charge 
O1          O  0.31689339  0.73492640  0.55454170    -0.82320
C2          C  0.17374401  0.74274491  0.44056634     0.97040
O3          O  0.18180411  0.70714618  0.46225172    -0.71430
O4          O  0.26532315  0.68162970  0.45699095    -0.75030
Al5        Al  0.22875234  0.69613000  0.50690241     1.48980
C6          C  0.30145511  0.69714731  0.44339414     0.92290
O7          O  0.28628568  0.81102077  0.45623653    -0.81250
O8          O  0.21619087  0.80382767  0.56826615    -0.74810
Al9        Al  0.29853219  0.77182223  0.50663784     1.90120
O10         O  0.23338651  0.84215281  0.49116465    -0.73870
O11         O  0.15591424  0.75604947  0.52748016    -0.73720
O12         O  0.18926182  0.77947688  0.45200418    -0.79390
O13         O  0.19038131  0.70357535  0.55960670    -0.77590
O14         O  0.24421314  0.75229827  0.50768186    -1.13720
O15         O  0.27234335  0.67798612  0.54890499    -0.72920
C16         C  0.30430369  0.69719086  0.56753955     0.97800
C17         C  0.25649261  0.83994351  0.45741038     0.94200
Al18       Al  0.20219818  0.79195073  0.50978060     1.55560
O19         O  0.31849288  0.73024003  0.46261135    -0.77540
C20         C  0.15882356  0.73045200  0.55919506     0.98360
C21         C  0.25210972  0.82258456  0.57681222     0.93240
O22         O  0.28607487  0.81715232  0.55230767    -0.82860
O23         O  0.64138826  0.29896419  0.54984018    -0.82320
C24         C  0.78377992  0.27467644  0.43715886     0.97040
O25         O  0.77829444  0.31165762  0.45782771    -0.71430
O26         O  0.69807706  0.34730936  0.45465933    -0.75030
Al27       Al  0.73405659  0.32839485  0.50367449     1.48980
C28         C  0.66143930  0.33439524  0.43987700     0.92290
O29         O  0.66833293  0.21806892  0.45208993    -0.81250
O30         O  0.73578328  0.22489687  0.56555033    -0.74810
Al31       Al  0.65764747  0.25947818  0.50269932     1.90120
O32         O  0.71410305  0.18340461  0.49209470    -0.73870
O33         O  0.80193155  0.26109182  0.52417886    -0.73720
O34         O  0.76617989  0.23906724  0.44965673    -0.79390
O35         O  0.77311611  0.31761056  0.55524138    -0.77590
O36         O  0.71345256  0.27424239  0.50426737    -1.13720
O37         O  0.69259432  0.35026710  0.54757267    -0.72920
C38         C  0.65788992  0.33445447  0.56483580     0.97800
C39         C  0.69461529  0.18606415  0.45629042     0.94200
Al40       Al  0.75127783  0.23064394  0.50759683     1.55560
O41         O  0.64222917  0.30171114  0.45764013    -0.77540
C42         C  0.80121942  0.28694468  0.55591817     0.98360
C43         C  0.69923385  0.20912117  0.57578518     0.93240
O44         O  0.66546061  0.21430231  0.55092236    -0.82860
O45         O  0.64374992  0.73613265  0.45440525    -0.82320
C46         C  0.78486870  0.76560385  0.56536834     0.97040
O47         O  0.78039237  0.72821415  0.54518863    -0.71430
O48         O  0.70139653  0.69044970  0.55144241    -0.75030
Al49       Al  0.73548618  0.70906684  0.50150476     1.48980
C50         C  0.66360317  0.70109145  0.56443119     0.92290
O51         O  0.66583067  0.81646817  0.55163660    -0.81250
O52         O  0.73526111  0.81418234  0.43824108    -0.74810
Al53       Al  0.65766410  0.77540296  0.50112091     1.90120
O54         O  0.71212227  0.85378139  0.51349479    -0.73870
O55         O  0.80111062  0.77804441  0.47817328    -0.73720
O56         O  0.76456067  0.79941383  0.55337714    -0.79390
O57         O  0.77260309  0.71935315  0.44955948    -0.77590
O58         O  0.71363331  0.76273876  0.49966846    -1.13720
O59         O  0.69395855  0.68444770  0.45975737    -0.72920
C60         C  0.65994270  0.69995146  0.44148636     0.97800
C61         C  0.69026723  0.85006718  0.54816015     0.94200
Al62       Al  0.75023735  0.80762890  0.49608100     1.55560
O63         O  0.64315333  0.73206388  0.54537796    -0.77540
C64         C  0.80139539  0.74927041  0.44883694     0.98360
C65         C  0.69790618  0.82795281  0.42832729     0.93240
O66         O  0.66444514  0.82115531  0.45345737    -0.82860
O67         O  0.43777718  0.35535558  0.28471926    -0.82320
C68         C  0.55423903  0.21720382  0.26838637     0.97040
O69         O  0.53044897  0.22136016  0.30348826    -0.71430
O70         O  0.52896460  0.30229840  0.33584381    -0.75030
Al71       Al  0.48277084  0.26385673  0.31677726     1.48980
C72         C  0.54476553  0.33799545  0.32090321     0.92290
O73         O  0.53348543  0.32812905  0.20328964    -0.81250
O74         O  0.42581046  0.25297386  0.21051963    -0.74810
Al75       Al  0.48396176  0.33796914  0.24532944     1.90120
O76         O  0.49692920  0.27745587  0.17113061    -0.73870
O77         O  0.47059223  0.19162076  0.25406595    -0.73720
O78         O  0.54237019  0.23192285  0.23114203    -0.79390
O79         O  0.43306646  0.22265139  0.30459958    -0.77590
O80         O  0.48364475  0.28238228  0.26184031    -1.13720
O81         O  0.43822686  0.30419228  0.33613424    -0.72920
C82         C  0.42222126  0.33918704  0.32000340     0.97800
C83         C  0.53030278  0.30057245  0.17189452     0.94200
Al84       Al  0.48395079  0.24166408  0.21987703     1.55560
O85         O  0.52871252  0.35563658  0.28655227    -0.77540
C86         C  0.43623043  0.19246141  0.27571852     0.98360
C87         C  0.41339200  0.29021962  0.19668265     0.93240
O88         O  0.43617119  0.32584079  0.20201473    -0.82860
O89         O  0.64691939  0.46910101  0.28548217    -0.82320
C90         C  0.78693927  0.58738126  0.27347719     0.97040
O91         O  0.78062231  0.56367478  0.30803629    -0.71430
O92         O  0.69873920  0.56724709  0.33808891    -0.75030
Al93       Al  0.73521258  0.51861277  0.32012252     1.48980
C94         C  0.66142627  0.57983786  0.32507586     0.92290
O95         O  0.66946100  0.57171088  0.21158877    -0.81250
O96         O  0.74308613  0.46359714  0.20880174    -0.74810
Al97       Al  0.66134014  0.51901272  0.24912294     1.90120
O98         O  0.72160107  0.54047252  0.17557164    -0.73870
O99         O  0.80484862  0.50113185  0.25408739    -0.73720
O100        O  0.76991314  0.57819031  0.23673198    -0.79390
O101        O  0.77345504  0.46759885  0.30811405    -0.77590
O102        O  0.71675967  0.51953577  0.26488621    -1.13720
O103        O  0.69355113  0.47501421  0.34026738    -0.72920
C104        C  0.66142970  0.45562738  0.32228251     0.97800
C105        C  0.69694756  0.57261582  0.18038666     0.94200
Al106      Al  0.75644734  0.52083450  0.22231127     1.55560
O107        O  0.64278533  0.56047830  0.29314424    -0.77540
C108        C  0.80188527  0.46774605  0.27762790     0.98360
C109        C  0.70643667  0.45200883  0.19439951     0.93240
O110        O  0.67193437  0.47498433  0.20144990    -0.82860
O111        O  0.43451607  0.73859431  0.34191553    -0.82320
C112        C  0.54999159  0.75407206  0.19901951     0.97040
O113        O  0.52720085  0.71877675  0.20485799    -0.71430
O114        O  0.53088003  0.68615274  0.28647332    -0.75030
Al115      Al  0.48256300  0.70517013  0.25064668     1.48980
C116        C  0.54365309  0.69805107  0.32446905     0.92290
O117        O  0.53646204  0.81234121  0.31825935    -0.81250
O118        O  0.42689029  0.81501942  0.24646702    -0.74810
Al119      Al  0.48402535  0.77484521  0.32701751     1.90120
O120        O  0.50322546  0.84937673  0.26804614    -0.73870
O121        O  0.46389471  0.77245358  0.18161680    -0.73720
O122        O  0.54016352  0.79040034  0.21676537    -0.79390
O123        O  0.43183517  0.71708031  0.21223091    -0.77590
O124        O  0.48347782  0.75991476  0.27059745    -1.13720
O125        O  0.43976240  0.68472675  0.29319824    -0.72920
C126        C  0.42105087  0.70202761  0.32653747     0.97800
C127        C  0.53598646  0.84456801  0.29172554     0.94200
Al128      Al  0.48357492  0.80319622  0.23157160     1.55560
O129        O  0.52498539  0.72986873  0.34419397    -0.77540
C130        C  0.43161833  0.74760251  0.18366810     0.98360
C131        C  0.41763099  0.83165539  0.28326884     0.93240
O132        O  0.44055990  0.82358650  0.31790990    -0.82860
O133        O  0.32244543  0.56954115  0.28430823    -0.82320
C134        C  0.18352174  0.45051971  0.26256949     0.97040
O135        O  0.18838564  0.47336292  0.29814777    -0.71430
O136        O  0.26803336  0.46946106  0.33276726    -0.75030
Al137      Al  0.23265269  0.51842177  0.31414450     1.48980
C138        C  0.30639069  0.45791705  0.32212585     0.92290
O139        O  0.30441488  0.46685836  0.20973147    -0.81250
O140        O  0.23196029  0.57636399  0.20486744    -0.74810
Al141      Al  0.31054149  0.51964584  0.24734240     1.90120
O142        O  0.25521012  0.49919034  0.17085733    -0.73870
O143        O  0.16666052  0.53846282  0.24449620    -0.73720
O144        O  0.20203132  0.46144536  0.22699684    -0.79390
O145        O  0.19439736  0.56930929  0.30226908    -0.77590
O146        O  0.25415532  0.51888260  0.26013424    -1.13720
O147        O  0.27351050  0.56179979  0.33720392    -0.72920
C148        C  0.30632043  0.58187073  0.32091818     0.97800
C149        C  0.27913626  0.46660294  0.17683188     0.94200
Al150      Al  0.21713018  0.51888001  0.21548428     1.55560
O151        O  0.32697676  0.47856279  0.29228877    -0.77540
C152        C  0.16706555  0.56993622  0.27094081     0.98360
C153        C  0.26880954  0.58619979  0.18965726     0.93240
O154        O  0.30285004  0.56325486  0.19855422    -0.82860
O155        O  0.26870172  0.56640496  0.67094395    -0.82320
C156        C  0.25721227  0.43916398  0.80116220     0.97040
O157        O  0.29186482  0.46344393  0.79774115    -0.71430
O158        O  0.32034620  0.46950531  0.71612605    -0.75030
Al159      Al  0.30379475  0.51392517  0.75708948     1.48980
C160        C  0.30525534  0.45653679  0.67946545     0.92290
O161        O  0.19112162  0.46743779  0.69180036    -0.81250
O162        O  0.19763994  0.56904724  0.77578277    -0.74810
Al163      Al  0.23109538  0.51830598  0.68547839     1.90120
O164        O  0.15947420  0.49777222  0.74738139    -0.73870
O165        O  0.24409497  0.52264729  0.83199940    -0.73720
O166        O  0.22074871  0.45201371  0.78698081    -0.79390
O167        O  0.29333294  0.56181058  0.80051516    -0.77590
O168        O  0.24890226  0.51443355  0.74033626    -1.13720
O169        O  0.32259130  0.56083869  0.71832530    -0.72920
C170        C  0.30499744  0.57986127  0.68564996     0.97800
C171        C  0.16030739  0.46761215  0.71952122     0.94200
Al172      Al  0.20867587  0.51058559  0.78219997     1.55560
O173        O  0.27187759  0.47492414  0.66284365    -0.77540
C174        C  0.26589343  0.55740183  0.83150608     0.98360
C175        C  0.18182645  0.58415452  0.74067775     0.93240
O176        O  0.18771394  0.56468662  0.70296260    -0.82860
O177        O  0.53184610  0.73414713  0.66313298    -0.82320
C178        C  0.41888082  0.75607898  0.80515159     0.97040
O179        O  0.44168788  0.72079347  0.80069788    -0.71430
O180        O  0.43730119  0.68548278  0.72045473    -0.75030
Al181      Al  0.48588617  0.70516263  0.75593454     1.48980
C182        C  0.42340055  0.69740530  0.68292258     0.92290
O183        O  0.43347702  0.81147308  0.68641463    -0.81250
O184        O  0.54397010  0.81372755  0.75637422    -0.74810
Al185      Al  0.48440958  0.77230245  0.67766683     1.90120
O186        O  0.46913898  0.84933003  0.73387284    -0.73870
O187        O  0.50569115  0.77470315  0.82309016    -0.73720
O188        O  0.42973183  0.79247752  0.78792833    -0.79390
O189        O  0.53654573  0.71770676  0.79428051    -0.77590
O190        O  0.48569294  0.75923956  0.73449737    -1.13720
O191        O  0.52847302  0.68281737  0.71443968    -0.72920
C192        C  0.54603492  0.69867220  0.67990372     0.97800
C193        C  0.43470047  0.84373925  0.71301468     0.94200
Al194      Al  0.48697717  0.80396946  0.77222350     1.55560
O195        O  0.44173234  0.72882418  0.66253662    -0.77540
C196        C  0.53718611  0.74901182  0.82209605     0.98360
C197        C  0.55435708  0.82636038  0.71822758     0.93240
O198        O  0.52990226  0.81884215  0.68457381    -0.82860
O199        O  0.69644724  0.46775971  0.66855802    -0.82320
C200        C  0.70949739  0.58664621  0.80894389     0.97040
O201        O  0.67352299  0.56540430  0.80208502    -0.71430
O202        O  0.64674740  0.56604931  0.71824972    -0.75030
Al203      Al  0.66071742  0.51826043  0.75717764     1.48980
C204        C  0.66242476  0.57962862  0.68193620     0.92290
O205        O  0.77589051  0.56493581  0.69732691    -0.81250
O206        O  0.76490378  0.45606273  0.77241689    -0.74810
Al207      Al  0.73494619  0.51504122  0.68619728     1.90120
O208        O  0.80570829  0.52931314  0.75015798    -0.73870
O209        O  0.71946939  0.50143583  0.83169170    -0.73720
O210        O  0.74542492  0.57394836  0.79319907    -0.79390
O211        O  0.66733648  0.46777044  0.79850807    -0.77590
O212        O  0.71598483  0.51605450  0.74116033    -1.13720
O213        O  0.64159052  0.47393641  0.71525574    -0.72920
C214        C  0.65954047  0.45469150  0.68260682     0.97800
C215        C  0.80485314  0.56317272  0.72711663     0.94200
Al216      Al  0.75557630  0.51515925  0.78347522     1.55560
O217        O  0.69536435  0.56047302  0.66503119    -0.77540
C218        C  0.69373438  0.46973576  0.83054106     0.98360
C219        C  0.78221058  0.44441023  0.73628073     0.93240
O220        O  0.77759613  0.46735809  0.70063504    -0.82860
O221        O  0.52739768  0.35220921  0.72212802    -0.82320
C222        C  0.40869480  0.21146502  0.73628014     0.97040
O223        O  0.43301904  0.21684369  0.70193091    -0.71430
O224        O  0.43162669  0.29905752  0.66997855    -0.75030
Al225      Al  0.47853167  0.26196913  0.68920694     1.48980
C226        C  0.41882667  0.33679294  0.68264221     0.92290
O227        O  0.42649928  0.33027598  0.79910472    -0.81250
O228        O  0.53205710  0.25328346  0.80082587    -0.74810
Al229      Al  0.47828721  0.33744514  0.75963392     1.90120
O230        O  0.45768958  0.27765511  0.83432771    -0.73870
O231        O  0.49280741  0.19153147  0.75508828    -0.73720
O232        O  0.41695022  0.23047208  0.77255064    -0.79390
O233        O  0.52791043  0.22297293  0.70215462    -0.77590
O234        O  0.47737495  0.28140121  0.74428648    -1.13720
O235        O  0.52255422  0.30332770  0.66868451    -0.72920
C236        C  0.54116379  0.33679072  0.68565316     0.97800
C237        C  0.42672000  0.30373647  0.83139248     0.94200
Al238      Al  0.47484216  0.24163283  0.78711988     1.55560
O239        O  0.43657848  0.35555004  0.71564157    -0.77540
C240        C  0.52659610  0.19414193  0.73237646     0.98360
C241        C  0.54475142  0.29071250  0.81376111     0.93240
O242        O  0.52284984  0.32614347  0.80617944    -0.82860
O243        O  0.32141867  0.30148344  0.45200013    -0.82320
C244        C  0.18427002  0.28230477  0.57026900     0.97040
O245        O  0.18845854  0.31762932  0.54693808    -0.71430
O246        O  0.26849788  0.35119583  0.54745204    -0.75030
Al247      Al  0.23111978  0.33225535  0.50001515     1.48980
C248        C  0.30515700  0.33784301  0.56135133     0.92290
O249        O  0.29805174  0.22284741  0.55030033    -0.81250
O250        O  0.22484514  0.22535828  0.44163590    -0.74810
Al251      Al  0.30648750  0.26290290  0.49944423     1.90120
O252        O  0.24899307  0.18731150  0.51495218    -0.73870
O253        O  0.16160251  0.26558874  0.48383635    -0.73720
O254        O  0.19997357  0.24561279  0.55832466    -0.79390
O255        O  0.19091160  0.32042765  0.44992782    -0.77590
O256        O  0.25080039  0.27777088  0.49981627    -1.13720
O257        O  0.27122418  0.35324269  0.45545645    -0.72920
C258        C  0.30529413  0.33716666  0.43779441     0.97800
C259        C  0.27087228  0.19133973  0.54914292     0.94200
Al260      Al  0.21199829  0.23437943  0.49972774     1.55560
O261        O  0.32371956  0.30517638  0.54322374    -0.77540
C262        C  0.16231626  0.29010644  0.45102958     0.98360
C263        C  0.26165333  0.21177101  0.42934575     0.93240
O264        O  0.29631366  0.21777291  0.45260039    -0.82860
C265        C  0.38175859  0.35903319  0.65919817     0.02610
C266        C  0.36334974  0.39796061  0.67661945    -0.13540
C267        C  0.32647042  0.41792835  0.65716610     0.00110
C268        C  0.30835262  0.39859918  0.61889124    -0.12070
C269        C  0.32626794  0.35980243  0.60030634     0.02600
C270        C  0.36303077  0.34045461  0.62079330    -0.11490
H271        H  0.37707666  0.41207988  0.70645579     0.08200
H272        H  0.27961866  0.41318888  0.60415681     0.05720
H273        H  0.37651369  0.31020268  0.60738837     0.05570
C274        C  0.32649506  0.35979389  0.39931331     0.02610
C275        C  0.36430468  0.34159165  0.37967246    -0.13540
C276        C  0.38390570  0.36089894  0.34215900     0.00110
C277        C  0.36524354  0.39968546  0.32466878    -0.12070
C278        C  0.32731029  0.41867842  0.34346163     0.02600
C279        C  0.30827618  0.39832916  0.38079536    -0.11490
H280        H  0.37810646  0.31162024  0.39316058     0.08200
H281        H  0.37962141  0.41447776  0.29546590     0.05720
H282        H  0.27888443  0.41220421  0.39510742     0.05570
C283        C  0.63673070  0.35694050  0.60413059     0.02610
C284        C  0.65553864  0.39530063  0.62309519    -0.13540
C285        C  0.63757902  0.41538417  0.66133723     0.00110
C286        C  0.59985854  0.39625753  0.68065511    -0.12070
C287        C  0.58011272  0.35780715  0.66291448     0.02600
C288        C  0.59890177  0.33871677  0.62448243    -0.11490
H289        H  0.68478469  0.40922049  0.60840387     0.08200
H290        H  0.58625241  0.41093987  0.71029864     0.05720
H291        H  0.58448772  0.30895162  0.61085373     0.05570
C292        C  0.64201057  0.61917216  0.65981190     0.02610
C293        C  0.66140099  0.63949797  0.62231015    -0.13540
C294        C  0.64291066  0.67780618  0.60302219     0.00110
C295        C  0.60456440  0.69535514  0.62171639    -0.12070
C296        C  0.58474898  0.67644257  0.65919760     0.02600
C297        C  0.60364660  0.63827948  0.67780698    -0.11490
H298        H  0.69113067  0.62587418  0.60850178     0.08200
H299        H  0.59056802  0.72492131  0.60755444     0.05720
H300        H  0.58878094  0.62383637  0.70693181     0.05570
C301        C  0.38423448  0.67556658  0.66265351     0.02610
C302        C  0.36464195  0.69399191  0.62463887    -0.13540
C303        C  0.32643498  0.67565014  0.60607641     0.00110
C304        C  0.30801964  0.63790587  0.62608783    -0.12070
C305        C  0.32663170  0.61877955  0.66418149     0.02600
C306        C  0.36483733  0.63791563  0.68209806    -0.11490
H307        H  0.37872797  0.72334879  0.60986619     0.08200
H308        H  0.27840476  0.62384116  0.61240243     0.05720
H309        H  0.37914995  0.62386515  0.71157518     0.05570
C310        C  0.32600471  0.62092338  0.34445068     0.02610
C311        C  0.30640368  0.63895850  0.38281581    -0.13540
C312        C  0.32381826  0.67697608  0.40378045     0.00110
C313        C  0.36175691  0.69679452  0.38549812    -0.12070
C314        C  0.38211268  0.67951153  0.34716408     0.02600
C315        C  0.36386815  0.64152255  0.32727341    -0.11490
H316        H  0.27707357  0.62375443  0.39598934     0.08200
H317        H  0.37512606  0.72625920  0.40077481     0.05720
H318        H  0.37887805  0.62829926  0.29763357     0.05570
C319        C  0.63888806  0.67660289  0.40341509     0.02610
C320        C  0.65773567  0.63861976  0.38441244    -0.13540
C321        C  0.63949241  0.61866422  0.34646890     0.00110
C322        C  0.60157517  0.63762300  0.32751289    -0.12070
C323        C  0.58198006  0.67570642  0.34593811     0.02600
C324        C  0.60089622  0.69439061  0.38407122    -0.11490
H325        H  0.68721375  0.62509572  0.39866534     0.08200
H326        H  0.58779426  0.62326359  0.29781681     0.05720
H327        H  0.58660203  0.72397366  0.39808681     0.05570
C328        C  0.64079705  0.41601491  0.34401389     0.02610
C329        C  0.65946984  0.39572074  0.38174111    -0.13540
C330        C  0.64078447  0.35716883  0.40070792     0.00110
C331        C  0.60267393  0.33932190  0.38099245    -0.12070
C332        C  0.58350767  0.35878172  0.34326967     0.02600
C333        C  0.60288690  0.39708045  0.32545369    -0.11490
H334        H  0.68892287  0.40958184  0.39596313     0.08200
H335        H  0.58828528  0.30955138  0.39458362     0.05720
H336        H  0.58866185  0.41193792  0.29633411     0.05570
O337        O  0.82176539  0.06491158  0.78410879    -0.82320
C338        C  0.67649229  0.95438492  0.76485346     0.97040
O339        O  0.68370890  0.97484442  0.80156575    -0.71430
O340        O  0.76517520  0.96887790  0.83399539    -0.75030
Al341      Al  0.72998897  0.01887945  0.81690859     1.48980
C342        C  0.80201648  0.95502469  0.82078329     0.92290
O343        O  0.79182225  0.96642155  0.70557205    -0.81250
O344        O  0.72748171  0.08126852  0.71272234    -0.74810
Al345      Al  0.80435800  0.01727763  0.74573261     1.90120
O346        O  0.74469668  0.00609351  0.67161294    -0.73870
O347        O  0.66128782  0.04274680  0.75160120    -0.73720
O348        O  0.69295830  0.96661101  0.72865136    -0.79390
O349        O  0.69251257  0.07154222  0.80813153    -0.77590
O350        O  0.74894133  0.01953348  0.76204071    -1.13720
O351        O  0.77306135  0.06103835  0.83778867    -0.72920
C352        C  0.80668284  0.07899087  0.82061343     0.97800
C353        C  0.76482219  0.97063374  0.67415822     0.94200
Al354      Al  0.70996078  0.02388357  0.71961357     1.55560
O355        O  0.82069668  0.97326883  0.78816301    -0.77540
C356        C  0.66380425  0.07375098  0.77821866     0.98360
C357        C  0.76361033  0.09011542  0.69528936     0.93240
O358        O  0.79659763  0.06429292  0.69970424    -0.82860
C359        C  0.82777473  0.11822133  0.84282476     0.02610
C360        C  0.86610457  0.13781094  0.82520660    -0.13540
C361        C  0.88455743  0.17653208  0.84390507     0.00110
C362        C  0.86383781  0.19544481  0.88124639    -0.12070
C363        C  0.82547440  0.17673267  0.89969508     0.02600
C364        C  0.80801881  0.13808858  0.88014509    -0.11490
H365        H  0.88114886  0.12334585  0.79617439     0.08200
H366        H  0.87722375  0.22537813  0.89557078     0.05720
H367        H  0.77834439  0.12383980  0.89359262     0.05570
O368        O  0.03414838  0.18230803  0.78697482    -0.82320
C369        C  0.92033966  0.32562806  0.77106462     0.97040
O370        O  0.94124621  0.31851845  0.80731275    -0.71430
O371        O  0.93749251  0.23536925  0.83737890    -0.75030
Al372      Al  0.98624550  0.27255087  0.82096842     1.48980
C373        C  0.92392116  0.19836233  0.82305860     0.92290
O374        O  0.93688553  0.20918678  0.70812502    -0.81250
O375        O  0.04621598  0.28184625  0.71387579    -0.74810
Al376      Al  0.98680878  0.19882302  0.74857270     1.90120
O377        O  0.97186935  0.26091293  0.67502932    -0.73870
O378        O  0.00500537  0.34419940  0.75798673    -0.73720
O379        O  0.93162502  0.30834509  0.73500647    -0.79390
O380        O  0.03765704  0.31171871  0.81139689    -0.77590
O381        O  0.98706689  0.25452678  0.76560604    -1.13720
O382        O  0.02894844  0.23016268  0.84150465    -0.72920
C383        C  0.04752277  0.19705135  0.82386781     0.97800
C384        C  0.93809086  0.23829442  0.67803709     0.94200
Al385      Al  0.98873877  0.29538508  0.72398784     1.55560
O386        O  0.94285497  0.18007756  0.79049627    -0.77540
C387        C  0.03677555  0.34241593  0.78310917     0.98360
C388        C  0.05598262  0.24503394  0.69711946     0.93240
O389        O  0.03278370  0.21010144  0.70346546    -0.82860
O390        O  0.14411749  0.97663816  0.79159477    -0.82320
C391        C  0.30661186  0.06438165  0.78691140     0.97040
O392        O  0.27577630  0.06451508  0.81459745    -0.71430
O393        O  0.19475634  0.05764984  0.84291451    -0.75030
Al394      Al  0.23700239  0.01422897  0.82182857     1.48980
C395        C  0.16412721  0.07890748  0.82422367     0.92290
O396        O  0.17977534  0.06548240  0.70302991    -0.81250
O397        O  0.22655035  0.00143512  0.67633422    -0.74810
Al398      Al  0.16559426  0.01981736  0.74897489     1.90120
O399        O  0.25081357  0.07654361  0.71405192    -0.73870
O400        O  0.27234509  0.95745086  0.73599119    -0.73720
O401        O  0.30953748  0.03270404  0.76079165    -0.79390
O402        O  0.28256536  0.96843111  0.80795973    -0.77590
O403        O  0.22047946  0.01703843  0.76621846    -1.13720
O404        O  0.20003702  0.96608211  0.83567928    -0.72920
C405        C  0.16228834  0.95544902  0.82277109     0.97800
C406        C  0.21514375  0.08796106  0.69665891     0.94200
Al407      Al  0.26164965  0.01703501  0.72495634     1.55560
O408        O  0.15152134  0.06813437  0.78602880    -0.77540
C409        C  0.28929512  0.94605602  0.77219232     0.98360
C410        C  0.20103386  0.96949147  0.67924227     0.93240
O411        O  0.17322650  0.96935263  0.71004788    -0.82860
C412        C  0.14357559  0.17560534  0.90348674     0.02610
C413        C  0.16127985  0.13696684  0.88438007    -0.13540
C414        C  0.14289871  0.11775326  0.84632831     0.00110
C415        C  0.10539289  0.13744682  0.82762931    -0.12070
C416        C  0.08625748  0.17574747  0.84604579     0.02600
C417        C  0.10588673  0.19456010  0.88410649    -0.11490
H418        H  0.19041747  0.12246756  0.89838503     0.08200
H419        H  0.09124038  0.12309473  0.79810980     0.05720
H420        H  0.09227837  0.22442632  0.89821961     0.05570
O421        O  0.03215078  0.79985891  0.83540858    -0.82320
C422        C  0.91566109  0.79695246  0.69356244     0.97040
O423        O  0.93927226  0.83137519  0.70090785    -0.71430
O424        O  0.93529754  0.85549293  0.78584040    -0.75030
Al425      Al  0.98354868  0.83996560  0.74852062     1.48980
C426        C  0.92213237  0.84051418  0.82271367     0.92290
O427        O  0.93092764  0.72631927  0.80991824    -0.81250
O428        O  0.03382817  0.72852668  0.73024965    -0.74810
Al429      Al  0.98290313  0.76424975  0.81866696     1.90120
O430        O  0.95860838  0.69488265  0.75275254    -0.73870
O431        O  0.99766483  0.78034193  0.67395456    -0.73720
O432        O  0.92207283  0.76150516  0.71358928    -0.79390
O433        O  0.03488605  0.82903039  0.70965936    -0.77590
O434        O  0.98192843  0.78374100  0.76406690    -1.13720
O435        O  0.02546240  0.85745625  0.79207075    -0.72920
C436        C  0.04469401  0.83784183  0.82328118     0.97800
C437        C  0.92818960  0.69744065  0.77983982     0.94200
Al438      Al  0.97824165  0.74453395  0.72124270     1.55560
O439        O  0.94103211  0.80752128  0.84033469    -0.77540
C440        C  0.03216738  0.80193485  0.67774457     0.98360
C441        C  0.04717930  0.71183500  0.76546091     0.93240
O442        O  0.02697736  0.71800362  0.80252017    -0.82860
C443        C  0.08318095  0.85943375  0.84495248     0.02610
C444        C  0.10275687  0.84049141  0.88263147    -0.13540
C445        C  0.14073095  0.85902473  0.90163402     0.00110
C446        C  0.15896637  0.89714755  0.88212070    -0.12070
C447        C  0.14012460  0.91691151  0.84444878     0.02600
C448        C  0.10199472  0.89795984  0.82650209    -0.11490
H449        H  0.08885590  0.81069310  0.89668192     0.08200
H450        H  0.18849656  0.91117947  0.89602503     0.05720
H451        H  0.08781409  0.91238674  0.79714037     0.05570
O452        O  0.19962112  0.85140115  0.95317805    -0.82320
C453        C  0.21323225  0.70764235  0.06604058     0.97040
O454        O  0.17783305  0.71372248  0.04417500    -0.71430
O455        O  0.14931925  0.79663908  0.05015198    -0.75030
Al456      Al  0.16493580  0.76057023  0.00008118     1.48980
C457        C  0.16332383  0.83360817  0.06391960     0.92290
O458        O  0.27614997  0.82252517  0.05125221    -0.81250
O459        O  0.27246222  0.75306540  0.93831804    -0.74810
Al460      Al  0.23696383  0.83399710  0.00087944     1.90120
O461        O  0.30904292  0.77079660  0.01573851    -0.73870
O462        O  0.22760444  0.68921912  0.97733014    -0.73720
O463        O  0.24928701  0.72292979  0.05348304    -0.79390
O464        O  0.17300014  0.72240231  0.94765441    -0.77590
O465        O  0.21991977  0.77827086  0.99902866    -1.13720
O466        O  0.14513060  0.80403620  0.95838257    -0.72920
C467        C  0.16285004  0.83721208  0.94000960     0.97800
C468        C  0.30578483  0.79343561  0.04990896     0.94200
Al469      Al  0.26094868  0.73742555  0.99624546     1.55560
O470        O  0.19538553  0.85208145  0.04491155    -0.77540
C471        C  0.20066656  0.69153283  0.94689375     0.98360
C472        C  0.28849605  0.79065777  0.93007632     0.93240
O473        O  0.28197719  0.82420937  0.95520094    -0.82860
O474        O  0.03323355  0.85240201  0.21957130    -0.82320
C475        C  0.91260613  0.71629617  0.23550227     0.97040
O476        O  0.93614896  0.72042829  0.20044026    -0.71430
O477        O  0.93698437  0.80189816  0.16931730    -0.75030
Al478      Al  0.98312133  0.76324730  0.18679973     1.48980
C479        C  0.92385742  0.83898804  0.18335438     0.92290
O480        O  0.93566524  0.83039416  0.29871635    -0.81250
O481        O  0.04076482  0.75216831  0.29477426    -0.74810
Al482      Al  0.98583645  0.83778249  0.25812365     1.90120
O483        O  0.96846278  0.77814166  0.33259758    -0.73870
O484        O  0.99719985  0.69126390  0.25098193    -0.73720
O485        O  0.92406066  0.73201490  0.27245999    -0.79390
O486        O  0.03163955  0.72211002  0.19743992    -0.77590
O487        O  0.98391261  0.78194575  0.24195038    -1.13720
O488        O  0.02788585  0.80327401  0.16627375    -0.72920
C489        C  0.04668393  0.83658069  0.18327798     0.97800
C490        C  0.93663281  0.80330410  0.33039543     0.94200
Al491      Al  0.98255696  0.74171420  0.28429623     1.55560
O492        O  0.94236794  0.85720841  0.21620855    -0.77540
C493        C  0.03024853  0.69273726  0.22710158     0.98360
C494        C  0.05396171  0.78900177  0.30892220     0.93240
O495        O  0.03213148  0.82488882  0.30283025    -0.82860
C496        C  0.14258930  0.85542441  0.10338308     0.02610
C497        C  0.16176891  0.89348188  0.12260907    -0.13540
C498        C  0.14375389  0.91357257  0.16069791     0.00110
C499        C  0.10565086  0.89498554  0.17936387    -0.12070
C500        C  0.08572824  0.85695518  0.16112107     0.02600
C501        C  0.10453780  0.83756263  0.12307070    -0.11490
H502        H  0.19123901  0.90721318  0.10819709     0.08200
H503        H  0.09180411  0.90982674  0.20881753     0.05720
H504        H  0.08984193  0.80810278  0.10907331     0.05570
O505        O  0.77094611  0.85289683  0.05119172    -0.82320
C506        C  0.75559909  0.71714268  0.93099474     0.97040
O507        O  0.79087517  0.72128710  0.95400095    -0.71430
O508        O  0.82087633  0.80315360  0.95670637    -0.75030
Al509      Al  0.80399816  0.76324467  0.00307253     1.48980
C510        C  0.80490419  0.83865763  0.94171595     0.92290
O511        O  0.68981515  0.82549099  0.95644523    -0.81250
O512        O  0.69927774  0.74891481  0.06383750    -0.74810
Al513      Al  0.73165784  0.83549392  0.00521832     1.90120
O514        O  0.65902353  0.77275135  0.99172866    -0.73870
O515        O  0.74401501  0.68947048  0.01522318    -0.73720
O516        O  0.71905233  0.73061524  0.94474633    -0.79390
O517        O  0.79400888  0.72066032  0.05282419    -0.77590
O518        O  0.74918690  0.78038984  0.00416031    -1.13720
O519        O  0.82310233  0.80320285  0.04865320    -0.72920
C520        C  0.80646172  0.83749076  0.06583479     0.97800
C521        C  0.66021458  0.79627186  0.95830120     0.94200
Al522      Al  0.70862258  0.73865578  0.00406981     1.55560
O523        O  0.77094038  0.85513585  0.95923012    -0.77540
C524        C  0.76595046  0.68997532  0.04948154     0.98360
C525        C  0.68485117  0.78606436  0.07652599     0.93240
O526        O  0.69010746  0.82164360  0.05362100    -0.82860
C527        C  0.88533808  0.86054905  0.16161103     0.02610
C528        C  0.86591288  0.89866495  0.18006948    -0.13540
C529        C  0.82788176  0.91749393  0.16155122     0.00110
C530        C  0.80962891  0.89769058  0.12362784    -0.12070
C531        C  0.82816150  0.85953746  0.10441777     0.02600
C532        C  0.86605857  0.84144050  0.12367051    -0.11490
H533        H  0.87991148  0.91314958  0.20960009     0.08200
H534        H  0.78019301  0.91150566  0.10957515     0.05720
H535        H  0.88012601  0.81180055  0.10953185     0.05570
O536        O  0.15309094  0.23358674  0.95708785    -0.82320
C537        C  0.28609523  0.23501070  0.08106894     0.97040
O538        O  0.28054057  0.20086764  0.05599773    -0.71430
O539        O  0.19731218  0.17761679  0.05135542    -0.75030
Al540      Al  0.23834177  0.19276519  0.00623941     1.48980
C541        C  0.16274112  0.19538807  0.06602428     0.92290
O542        O  0.18291426  0.31149923  0.05590913    -0.81250
O543        O  0.26322708  0.29933173  0.95333348    -0.74810
Al544      Al  0.17220754  0.27084123  0.00495625     1.90120
O545        O  0.23881007  0.33848777  0.02328831    -0.73870
O546        O  0.31591122  0.24774345  0.99825217    -0.73720
O547        O  0.27279503  0.27292197  0.07035578    -0.79390
O548        O  0.28121613  0.20235901  0.95715442    -0.77590
O549        O  0.22518021  0.24912742  0.00721035    -1.13720
O550        O  0.19817814  0.17748838  0.96004422    -0.72920
C551        C  0.16591070  0.19664238  0.94241651     0.97800
C552        C  0.21286420  0.34031139  0.05453014     0.94200
Al553      Al  0.26922288  0.28673546  0.01128990     1.55560
O554        O  0.14863411  0.23110281  0.04927593    -0.77540
C555        C  0.31342904  0.22831970  0.96207025     0.98360
C556        C  0.22899170  0.31594585  0.93767436     0.93240
O557        O  0.19148459  0.31272374  0.95737153    -0.82860
O558        O  0.14684631  0.06407599  0.22048573    -0.82320
C559        C  0.29269474  0.95387758  0.22964393     0.97040
O560        O  0.28481145  0.97538303  0.19392499    -0.71430
O561        O  0.20195654  0.96642232  0.16786158    -0.75030
Al562      Al  0.23608122  0.01771899  0.18216159     1.48980
C563        C  0.16532444  0.95292004  0.18192615     0.92290
O564        O  0.17853735  0.96535389  0.29572939    -0.81250
O565        O  0.24461279  0.07925593  0.29039176    -0.74810
Al566      Al  0.16543271  0.01585175  0.25698175     1.90120
O567        O  0.23069286  0.00125088  0.32750923    -0.73870
O568        O  0.30745897  0.04451467  0.24336761    -0.73720
O569        O  0.27802663  0.96618014  0.26628833    -0.79390
O570        O  0.27153622  0.07161311  0.18874358    -0.77590
O571        O  0.22014977  0.01853728  0.23823386    -1.13720
O572        O  0.19093342  0.05772414  0.16324100    -0.72920
C573        C  0.15928628  0.07678339  0.18257860     0.97800
C574        C  0.20810207  0.96711426  0.32494955     0.94200
Al575      Al  0.26167807  0.02259724  0.27837930     1.55560
O576        O  0.14701460  0.97218615  0.21426771    -0.77540
C577        C  0.30236498  0.07474603  0.21614624     0.98360
C578        C  0.20847945  0.08648336  0.30885215     0.93240
O579        O  0.17539585  0.06095114  0.30349397    -0.82860
O580        O  0.03130435  0.23446982  0.17124170    -0.82320
C581        C  0.90879323  0.23651554  0.30715261     0.97040
O582        O  0.93336556  0.20258458  0.30135878    -0.71430
O583        O  0.93557275  0.17908529  0.21731968    -0.75030
Al584      Al  0.98119272  0.19421094  0.25772161     1.48980
C585        C  0.92226139  0.19574164  0.18141511     0.92290
O586        O  0.93212376  0.31024239  0.19921323    -0.81250
O587        O  0.03537360  0.30401821  0.27831331    -0.74810
Al588      Al  0.98298930  0.27122704  0.18901586     1.90120
O589        O  0.96214474  0.33983064  0.25587006    -0.73870
O590        O  0.99294312  0.25228936  0.33452899    -0.73720
O591        O  0.92018932  0.27443049  0.29456319    -0.79390
O592        O  0.02994883  0.20328561  0.30000774    -0.77590
O593        O  0.98099085  0.25067855  0.24343628    -1.13720
O594        O  0.02596099  0.17799654  0.21644769    -0.72920
C595        C  0.04459498  0.19708655  0.18430335     0.97800
C596        C  0.93065896  0.33812189  0.23039042     0.94200
Al597      Al  0.97791236  0.28937559  0.28721721     1.55560
O598        O  0.94033035  0.23016337  0.16587813    -0.77540
C599        C  0.02739395  0.23102264  0.33131608     0.98360
C600        C  0.04843143  0.32129757  0.24271891     0.93240
O601        O  0.02794128  0.31559830  0.20596501    -0.82860
C602        C  0.13786981  0.11584457  0.16112578     0.02610
C603        C  0.15647267  0.13503552  0.12302661    -0.13540
C604        C  0.13962889  0.17420123  0.10438774     0.00110
C605        C  0.10271295  0.19392630  0.12431610    -0.12070
C606        C  0.08293025  0.17527070  0.16227491     0.02600
C607        C  0.10094658  0.13622466  0.18024752    -0.11490
H608        H  0.18525981  0.12007512  0.10856828     0.08200
H609        H  0.08977226  0.22421883  0.11066666     0.05720
H610        H  0.08669642  0.12208145  0.20983317     0.05570
O611        O  0.81851974  0.23703315  0.04945478    -0.82320
C612        C  0.67476486  0.24659379  0.93522395     0.97040
O613        O  0.68288600  0.21136503  0.95742675    -0.71430
O614        O  0.76590770  0.18426277  0.95121115    -0.75030
Al615      Al  0.73000868  0.19971046  0.00122955     1.48980
C616        C  0.80280736  0.19838939  0.93824925     0.92290
O617        O  0.78929202  0.31244798  0.94897648    -0.81250
O618        O  0.71929344  0.30847222  0.06072813    -0.74810
Al619      Al  0.80102998  0.27382337  0.00051218     1.90120
O620        O  0.73758370  0.34503682  0.98455042    -0.73870
O621        O  0.65803440  0.26139373  0.02261255    -0.73720
O622        O  0.69081923  0.28356451  0.94549978    -0.79390
O623        O  0.69269631  0.20820464  0.05386901    -0.77590
O624        O  0.74628933  0.25556152  0.00157360    -1.13720
O625        O  0.77351468  0.18061165  0.04297871    -0.72920
C626        C  0.80540911  0.19929409  0.06220792     0.97800
C627        C  0.76103720  0.34287367  0.95113973     0.94200
Al628      Al  0.70489125  0.29620794  0.00320332     1.55560
O629        O  0.82049617  0.23113523  0.95740248    -0.77540
C630        C  0.66182930  0.23581158  0.05436876     0.98360
C631        C  0.75536774  0.32641352  0.06965622     0.93240
O632        O  0.78958190  0.32030914  0.04572891    -0.82860
O633        O  0.82058499  0.97044622  0.21962803    -0.82320
C634        C  0.68029931  0.08646302  0.23497642     0.97040
O635        O  0.68605873  0.06383127  0.19922045    -0.71430
O636        O  0.76740581  0.06602978  0.16706527    -0.75030
Al637      Al  0.73089961  0.01762677  0.18564159     1.48980
C638        C  0.80424501  0.07979171  0.18030261     0.92290
O639        O  0.79545421  0.07048065  0.29557332    -0.81250
O640        O  0.72212709  0.96051663  0.29329862    -0.74810
Al641      Al  0.80462444  0.01880190  0.25664350     1.90120
O642        O  0.74504562  0.03581505  0.33098553    -0.73870
O643        O  0.66070303  0.00151170  0.25012456    -0.73720
O644        O  0.69816411  0.07628150  0.27095537    -0.79390
O645        O  0.69185159  0.96617168  0.19728216    -0.77590
O646        O  0.74950210  0.01840824  0.24054982    -1.13720
O647        O  0.77271537  0.97395398  0.16568542    -0.72920
C648        C  0.80600144  0.95621727  0.18321731     0.97800
C649        C  0.76885694  0.06900624  0.32751851     0.94200
Al650      Al  0.70982464  0.01845015  0.28292040     1.55560
O651        O  0.82257958  0.06173967  0.21321119    -0.77540
C652        C  0.66152670  0.96853079  0.22570593     0.98360
C653        C  0.75852296  0.94935764  0.30873783     0.93240
O654        O  0.79334913  0.97279046  0.30294310    -0.82860
C655        C  0.82677070  0.17688674  0.10097634     0.02610
C656        C  0.86488402  0.19476065  0.12061331    -0.13540
C657        C  0.88386534  0.17514587  0.15834606     0.00110
C658        C  0.86414791  0.13695479  0.17622780    -0.12070
C659        C  0.82594166  0.11846576  0.15795938     0.02600
C660        C  0.80772056  0.13863142  0.12012321    -0.11490
H661        H  0.87934430  0.22448583  0.10699437     0.08200
H662        H  0.87803060  0.12212792  0.20552888     0.05720
H663        H  0.77803808  0.12504793  0.10611765     0.05570
C664        C  0.82570019  0.86045617  0.90221622     0.02610
C665        C  0.80589215  0.89735113  0.88181075    -0.13540
C666        C  0.82380108  0.91660756  0.84324844     0.00110
C667        C  0.86240179  0.89824619  0.82529116    -0.12070
C668        C  0.88298136  0.86130349  0.84463806     0.02600
C669        C  0.86428019  0.84292070  0.88321397    -0.11490
H670        H  0.77607214  0.91076202  0.89563711     0.08200
H671        H  0.87611352  0.91234739  0.79543311     0.05720
H672        H  0.87933416  0.81420650  0.89798710     0.05570
C673        C  0.25695767  0.13654338  0.40588269    -0.21830
C674        C  0.25864249  0.18085553  0.39320344    -0.09870
C675        C  0.23620368  0.19451284  0.35506354     0.28990
C676        C  0.21286750  0.16391762  0.32989331    -0.21830
C677        C  0.21098327  0.11967971  0.34297910    -0.09880
C678        C  0.23232527  0.10643704  0.38177115     0.29000
F679        F  0.23186908  0.06348662  0.39461241    -0.20400
H680        H  0.27162828  0.12599097  0.43667330     0.17360
H681        H  0.19810396  0.17421512  0.29908964     0.17370
F682        F  0.23452867  0.23795577  0.34408549    -0.20390
C683        C  0.06559753  0.29016945  0.37442363    -0.21830
C684        C  0.06472204  0.24581565  0.35917753    -0.09870
C685        C  0.09885320  0.21790942  0.37110494     0.28990
C686        C  0.13168222  0.23355131  0.39931140    -0.21830
C687        C  0.13275319  0.27802345  0.41416177    -0.09880
C688        C  0.09977566  0.30646545  0.40047511     0.29000
F689        F  0.09874209  0.34892355  0.41497254    -0.20400
H690        H  0.03930588  0.31256957  0.36659209     0.17360
H691        H  0.15521044  0.20986893  0.41082050     0.17370
F692        F  0.09892371  0.17493519  0.35818822    -0.20390
C693        C  0.16480908  0.25157876  0.64283327    -0.21830
C694        C  0.15449386  0.27979229  0.60740449    -0.09870
C695        C  0.11137801  0.29292336  0.60066161     0.28990
C696        C  0.07877341  0.27657940  0.62790666    -0.21830
C697        C  0.08883091  0.24812700  0.66301712    -0.09880
C698        C  0.13206206  0.23611836  0.67099672     0.29000
F699        F  0.14249539  0.21053421  0.70619023    -0.20400
H700        H  0.19803253  0.24050445  0.64761841     0.17360
H701        H  0.04549732  0.28752525  0.62268764     0.17370
F702        F  0.10037227  0.31893638  0.56592844    -0.20390
C703        C  0.26702468  0.17877309  0.63113652    -0.21830
C704        C  0.25692576  0.16498525  0.58810594    -0.09870
C705        C  0.22622297  0.13023555  0.58250480     0.28990
C706        C  0.20762370  0.10910229  0.61893613    -0.21830
C707        C  0.21936385  0.12143652  0.66176134    -0.09880
C708        C  0.24829998  0.15728826  0.66760178     0.29000
F709        F  0.25930514  0.17059698  0.70883652    -0.20400
H710        H  0.28880897  0.20652540  0.63656397     0.17360
H711        H  0.18666629  0.08066925  0.61353726     0.17370
F712        F  0.21447166  0.11588520  0.54164999    -0.20390
C713        C  0.39464405  0.13259505  0.73478489    -0.21830
C714        C  0.37767153  0.17513746  0.73955904    -0.09870
C715        C  0.33847560  0.18128391  0.76298592     0.28990
C716        C  0.31709072  0.14535482  0.78231234    -0.21830
C717        C  0.33437407  0.10280856  0.77789643    -0.09880
C718        C  0.37353495  0.09674359  0.75408024     0.29000
F719        F  0.39144762  0.05597786  0.74948443    -0.20400
H720        H  0.42597436  0.12750938  0.71882091     0.17360
H721        H  0.28605361  0.15049998  0.79879624     0.17370
F722        F  0.32096366  0.22214875  0.76695470    -0.20390
C723        C  0.62039400  0.26914449  0.82812646    -0.21830
C724        C  0.58168319  0.28884361  0.84357956    -0.09870
C725        C  0.57239439  0.28864492  0.88886987     0.28990
C726        C  0.60112968  0.26873375  0.91817012    -0.21830
C727        C  0.63999195  0.24946590  0.90294582    -0.09880
C728        C  0.64984644  0.25022676  0.85773636     0.29000
F729        F  0.68819770  0.23362790  0.84254760    -0.20400
H730        H  0.62680626  0.26689144  0.79294825     0.17360
H731        H  0.59408241  0.27022760  0.95328198     0.17370
F732        F  0.53405812  0.30499090  0.90436846    -0.20390
C733        C  0.59674255  0.15684811  0.71494537    -0.21830
C734        C  0.56459339  0.16720211  0.74565105    -0.09870
C735        C  0.56885653  0.15138231  0.78963722     0.28990
C736        C  0.60414535  0.12469003  0.80171933    -0.21830
C737        C  0.63468088  0.11178488  0.77000142    -0.09880
C738        C  0.63046565  0.12840979  0.72633607     0.29000
F739        F  0.65672925  0.11492915  0.69308846    -0.20400
H740        H  0.59427010  0.16846490  0.68118910     0.17360
H741        H  0.60571036  0.11146271  0.83491842     0.17370
F742        F  0.53841113  0.16053616  0.82096966    -0.20390
C743        C  0.38068747  0.26768924  0.93857658    -0.21830
C744        C  0.34203921  0.24577635  0.92587805    -0.09870
C745        C  0.32731813  0.25159707  0.88211481     0.28990
C746        C  0.35200358  0.27716812  0.85186548    -0.21830
C747        C  0.39160034  0.29723479  0.86454185    -0.09880
C748        C  0.40473140  0.29319102  0.90876287     0.29000
F749        F  0.44286002  0.31164557  0.92243127    -0.20400
H750        H  0.39228284  0.26547511  0.97231113     0.17360
H751        H  0.34143289  0.27969336  0.81795369     0.17370
F752        F  0.28883714  0.23361024  0.86890951    -0.20390
C753        C  0.70509698  0.66475280  0.83273817    -0.21830
C754        C  0.71478192  0.62073164  0.84221742    -0.09870
C755        C  0.74401515  0.61074865  0.87667203     0.28990
C756        C  0.76340481  0.64407490  0.90110564    -0.21830
C757        C  0.75241521  0.68789393  0.89324869    -0.09880
C758        C  0.72323788  0.69833022  0.85873139     0.29000
F759        F  0.71085008  0.74079023  0.85178875    -0.20400
H760        H  0.68447546  0.67302508  0.80493336     0.17360
H761        H  0.78416741  0.63531496  0.92869218     0.17370
F762        F  0.75543787  0.56838732  0.88541644    -0.20390
C763        C  0.85186371  0.59979972  0.78420785    -0.21830
C764        C  0.83317186  0.60075147  0.74131638    -0.09870
C765        C  0.84101761  0.63765822  0.71480239     0.28990
C766        C  0.86919632  0.67105895  0.72970138    -0.21830
C767        C  0.88956499  0.66899010  0.77155676    -0.09880
C768        C  0.87960477  0.63353468  0.79920558     0.29000
F769        F  0.89897485  0.62990531  0.83932302    -0.20400
H770        H  0.84567785  0.57234781  0.80620135     0.17360
H771        H  0.87631019  0.69754175  0.70749711     0.17370
F772        F  0.82333228  0.64059068  0.67382569    -0.20390
C773        C  0.85438905  0.41393939  0.71823320    -0.21830
C774        C  0.81450906  0.40911593  0.74003718    -0.09870
C775        C  0.81070266  0.37802655  0.77457842     0.28990
C776        C  0.84635671  0.35294983  0.78783759    -0.21830
C777        C  0.88618901  0.35843675  0.76645056    -0.09880
C778        C  0.89007842  0.38906987  0.73146070     0.29000
F779        F  0.92859348  0.39458458  0.70973868    -0.20400
H780        H  0.85862639  0.43863013  0.69268383     0.17360
H781        H  0.84244121  0.32824411  0.81342973     0.17370
F782        F  0.77239257  0.37234062  0.79585299    -0.20390
C783        C  0.70341683  0.39009016  0.85195008    -0.21830
C784        C  0.70158539  0.43489937  0.86390797    -0.09870
C785        C  0.72130105  0.44812689  0.90389620     0.28990
C786        C  0.74550745  0.41850871  0.92886886    -0.21830
C787        C  0.74978344  0.37430070  0.91592238    -0.09880
C788        C  0.72741131  0.35993199  0.87779344     0.29000
F789        F  0.72855956  0.31678719  0.86571239    -0.20400
H790        H  0.68892973  0.37902244  0.82121252     0.17360
H791        H  0.75948273  0.42974380  0.95982968     0.17370
F792        F  0.71845242  0.49059851  0.91814430    -0.20390
C793        C  0.58959865  0.72714830  0.88084051    -0.21830
C794        C  0.57397290  0.75916181  0.85204411    -0.09870
C795        C  0.58851826  0.80348543  0.85721881     0.28990
C796        C  0.61806337  0.81514104  0.89034058    -0.21830
C797        C  0.63160730  0.78372568  0.92080281    -0.09880
C798        C  0.61717447  0.73926664  0.91558255     0.29000
F799        F  0.62877969  0.70719392  0.94444181    -0.20400
H800        H  0.57816664  0.69331821  0.87828969     0.17360
H801        H  0.62844810  0.84925016  0.89360685     0.17370
F802        F  0.57282164  0.83648073  0.83176762    -0.20390
C803        C  0.65619324  0.87608371  0.75906945    -0.21830
C804        C  0.64351178  0.92041853  0.75969327    -0.09870
C805        C  0.60489654  0.93312440  0.73823333     0.28990
C806        C  0.57900447  0.90184146  0.71703167    -0.21830
C807        C  0.59052305  0.85724414  0.71797875    -0.09880
C808        C  0.62956612  0.84447987  0.73881729     0.29000
F809        F  0.64022046  0.80109152  0.74201725    -0.20400
H810        H  0.68706398  0.86621214  0.77335030     0.17360
H811        H  0.54802598  0.91197797  0.70311330     0.17370
F812        F  0.59312825  0.97631077  0.73644362    -0.20390
C813        C  0.39498442  0.76512236  0.88064870    -0.21830
C814        C  0.38346189  0.75878803  0.83646549    -0.09870
C815        C  0.34131882  0.76939432  0.82193177     0.28990
C816        C  0.31029329  0.78440390  0.85220662    -0.21830
C817        C  0.32200320  0.79080784  0.89647214    -0.09880
C818        C  0.36461048  0.78152260  0.91047009     0.29000
F819        F  0.37609120  0.78594859  0.95357402    -0.20400
H820        H  0.42813615  0.75915084  0.89159842     0.17360
H821        H  0.27700092  0.78988475  0.84154016     0.17370
F822        F  0.33055774  0.76550887  0.77860108    -0.20390
C823        C  0.35342669  0.85368539  0.72156754    -0.21830
C824        C  0.39606068  0.86974190  0.72754205    -0.09870
C825        C  0.40231035  0.90694940  0.75534157     0.28990
C826        C  0.36691303  0.92787540  0.77549106    -0.21830
C827        C  0.32430875  0.91315011  0.76790995    -0.09880
C828        C  0.31785821  0.87529089  0.74142732     0.29000
F829        F  0.27685688  0.86020252  0.73369217    -0.20400
H830        H  0.34767039  0.82425665  0.70196269     0.17360
H831        H  0.37262149  0.95798814  0.79410239     0.17370
F832        F  0.44279792  0.92393104  0.76256739    -0.20390
C833        C  0.14122544  0.38887005  0.73539712    -0.21830
C834        C  0.12779167  0.43219626  0.72575837    -0.09870
C835        C  0.08559073  0.44533118  0.73815535     0.28990
C836        C  0.05855477  0.41707543  0.76201105    -0.21830
C837        C  0.07198667  0.37420817  0.77313772    -0.09880
C838        C  0.11343980  0.35989363  0.75886893     0.29000
F839        F  0.12649901  0.31779169  0.76651310    -0.20400
H840        H  0.17405321  0.37839232  0.72713567     0.17360
H841        H  0.02588562  0.42811828  0.77029927     0.17370
F842        F  0.07126803  0.48670183  0.72883081    -0.20390
C843        C  0.13204818  0.64024845  0.71042897    -0.21830
C844        C  0.15185193  0.62122745  0.74686009    -0.09870
C845        C  0.13864004  0.63411068  0.79015546     0.28990
C846        C  0.10567649  0.66484423  0.79627237    -0.21830
C847        C  0.08468329  0.68247197  0.75980395    -0.09880
C848        C  0.09838685  0.67003816  0.71651035     0.29000
F849        F  0.07773719  0.68428523  0.67955305    -0.20400
H850        H  0.14104406  0.63044514  0.67716491     0.17360
H851        H  0.09553343  0.67353809  0.82950244     0.17370
F852        F  0.15514824  0.61502733  0.82699856    -0.20390
C853        C  0.20576534  0.61427676  0.92446285    -0.21830
C854        C  0.20616162  0.65864221  0.91144561    -0.09870
C855        C  0.22879834  0.67022411  0.87248934     0.28990
C856        C  0.25109231  0.63786159  0.84765422    -0.21830
C857        C  0.25130347  0.59349648  0.86148874    -0.09880
C858        C  0.22793328  0.58220260  0.90013128     0.29000
F859        F  0.22674846  0.53983223  0.91480008    -0.20400
H860        H  0.19051329  0.60487055  0.95543822     0.17360
H861        H  0.26728774  0.64727171  0.81721246     0.17370
F862        F  0.23121082  0.71311339  0.85977271    -0.20390
C863        C  0.27879287  0.36204227  0.89354598    -0.21830
C864        C  0.23680288  0.34304303  0.89884118    -0.09870
C865        C  0.20507704  0.34950641  0.86686213     0.28990
C866        C  0.21455973  0.37679408  0.83135193    -0.21830
C867        C  0.25512465  0.39926234  0.82822437    -0.09880
C868        C  0.28797674  0.38994917  0.85852714     0.29000
F869        F  0.32742292  0.41050341  0.85670843    -0.20400
H870        H  0.30428515  0.35694154  0.91777343     0.17360
H871        H  0.18856160  0.38325197  0.80839240     0.17370
F872        F  0.16494010  0.33059696  0.87043874    -0.20390
C873        C  0.09270818  0.37134283  0.28894563    -0.21830
C874        C  0.08514062  0.35194188  0.24718186    -0.09870
C875        C  0.11182586  0.36313686  0.21153593     0.28990
C876        C  0.14519936  0.39376019  0.21767665    -0.21830
C877        C  0.15243357  0.41369123  0.25939996    -0.09880
C878        C  0.12610166  0.40174184  0.29518667     0.29000
F879        F  0.13108695  0.42072957  0.33556543    -0.20400
H880        H  0.07167309  0.36425565  0.31679573     0.17360
H881        H  0.16420606  0.40313835  0.18903064     0.17370
F882        F  0.10542266  0.34510137  0.17092700    -0.20390
C883        C  0.24476896  0.41200891  0.07361850    -0.21830
C884        C  0.22397605  0.37336097  0.08879792    -0.09870
C885        C  0.22780506  0.36228262  0.13375967     0.28990
C886        C  0.25119572  0.39024906  0.16275400    -0.21830
C887        C  0.27165316  0.42895195  0.14694997    -0.09880
C888        C  0.26894472  0.43873431  0.10184989     0.29000
F889        F  0.28804143  0.47582726  0.08546606    -0.20400
H890        H  0.24378995  0.42067126  0.03888163     0.17360
H891        H  0.25128499  0.38301828  0.19780512     0.17370
F892        F  0.20968253  0.32442276  0.14937532    -0.20390
C893        C  0.22310236  0.63263037  0.08947129    -0.21830
C894        C  0.21763559  0.67669746  0.10203042    -0.09870
C895        C  0.23705770  0.69199742  0.14132731     0.28990
C896        C  0.26064702  0.66313555  0.16805890    -0.21830
C897        C  0.26648554  0.61909618  0.15515024    -0.09880
C898        C  0.24803867  0.60432094  0.11518643     0.29000
F899        F  0.25106072  0.56129642  0.10288153    -0.20400
H900        H  0.21069430  0.62094085  0.05798964     0.17360
H901        H  0.27261373  0.67453592  0.19978733     0.17370
F902        F  0.23506938  0.73544232  0.15242449    -0.20390
C903        C  0.09763211  0.65086710  0.20681710    -0.21830
C904        C  0.06766844  0.66410201  0.23885793    -0.09870
C905        C  0.07358213  0.64963843  0.28311571     0.28990
C906        C  0.10834237  0.62201713  0.29441118    -0.21830
C907        C  0.13668152  0.60667287  0.26176853    -0.09880
C908        C  0.13101998  0.62157112  0.21770983     0.29000
F909        F  0.15653227  0.60658751  0.18433303    -0.20400
H910        H  0.09395944  0.66146410  0.17285036     0.17360
H911        H  0.11142550  0.61044927  0.32811723     0.17370
F912        F  0.04546250  0.66141962  0.31574903    -0.20390
C913        C  0.37445000  0.72519970  0.12926876    -0.21830
C914        C  0.39434913  0.75810850  0.15442099    -0.09870
C915        C  0.38260312  0.80284257  0.14682139     0.28990
C916        C  0.35156287  0.81397974  0.11502303    -0.21830
C917        C  0.33384444  0.78139998  0.08790041    -0.09880
C918        C  0.34566254  0.73661269  0.09538053     0.29000
F919        F  0.33096082  0.70352191  0.06904860    -0.20400
H920        H  0.38359003  0.69093539  0.13364067     0.17360
H921        H  0.34365327  0.84841190  0.10961926     0.17370
F922        F  0.40251297  0.83653106  0.16838864    -0.20390
C923        C  0.61254591  0.80135368  0.10569655    -0.21830
C924        C  0.65412665  0.78432568  0.11312151    -0.09870
C925        C  0.66104133  0.75480734  0.14835168     0.28990
C926        C  0.62616849  0.74157087  0.17507980    -0.21830
C927        C  0.58433614  0.75742120  0.16627113    -0.09880
C928        C  0.57780279  0.78776745  0.13179292     0.29000
F929        F  0.53761959  0.80490479  0.12394782    -0.20400
H930        H  0.60638505  0.82298479  0.07791035     0.17360
H931        H  0.63191288  0.72015343  0.20310614     0.17370
F932        F  0.70142118  0.73859562  0.15638950    -0.20390
C933        C  0.56092193  0.91939863  0.27552303    -0.21830
C934        C  0.57251500  0.87528074  0.28275411    -0.09870
C935        C  0.61312025  0.86028656  0.26649943     0.29310
C936        C  0.64152333  0.88958664  0.24401825    -0.21830
C937        C  0.62910535  0.93369898  0.23644706    -0.09880
C938        C  0.58819034  0.94788745  0.25228630     0.29000
F939        F  0.57487255  0.99020844  0.24617559    -0.20400
H940        H  0.52916982  0.93133199  0.28598120     0.17360
H941        H  0.67347065  0.87823929  0.23367473     0.17370
F942        F  0.62431663  0.81712742  0.27046175    -0.20390
C943        C  0.39835632  0.90392105  0.25610908    -0.21830
C944        C  0.38504952  0.86629201  0.27993649    -0.09870
C945        C  0.34080143  0.85456342  0.28030447     0.28990
C946        C  0.31047403  0.88044804  0.25767228    -0.21830
C947        C  0.32392309  0.91794936  0.23358010    -0.09880
C948        C  0.36827643  0.92914435  0.23263708     0.29000
F949        F  0.38205386  0.96617097  0.21142578    -0.20400
H950        H  0.43276349  0.91208458  0.25332440     0.17360
H951        H  0.27602092  0.87267204  0.26082355     0.17370
F952        F  0.32729423  0.81732163  0.30128122    -0.20390
C953        C  0.73007755  0.39931228  0.08837243    -0.21830
C954        C  0.75189084  0.36110420  0.10238629    -0.09870
C955        C  0.75203566  0.35007345  0.14722945     0.28990
C956        C  0.73081036  0.37730243  0.17765769    -0.21830
C957        C  0.70880900  0.41549971  0.16353763    -0.09880
C958        C  0.70828138  0.42608600  0.11857075     0.29000
F959        F  0.68955660  0.46409601  0.10436098    -0.20400
H960        H  0.72794650  0.40709151  0.05348263     0.17360
H961        H  0.73355358  0.37005802  0.21260908     0.17370
F962        F  0.77142189  0.31233969  0.16119026    -0.20390
C963        C  0.73646759  0.64233410  0.16265944    -0.21830
C964        C  0.70506660  0.61017368  0.15062167    -0.09870
C965        C  0.69650338  0.60351818  0.10580692     0.28990
C966        C  0.71904367  0.62759884  0.07385870    -0.21830
C967        C  0.75069837  0.65976795  0.08532450    -0.09880
C968        C  0.75929993  0.66686717  0.13035794     0.29000
F969        F  0.78905478  0.69763108  0.14317890    -0.20400
H970        H  0.74477912  0.64712744  0.19706376     0.17360
H971        H  0.71117098  0.62105878  0.03956654     0.17370
F972        F  0.66815971  0.57144597  0.09278972    -0.20390
C973        C  0.80914576  0.66539867  0.27488299    -0.21830
C974        C  0.82049842  0.62085119  0.27114563    -0.09870
C975        C  0.85945201  0.60877938  0.24975303     0.28990
C976        C  0.88696273  0.64093111  0.23261503    -0.21830
C977        C  0.87652281  0.68549024  0.23755167    -0.09880
C978        C  0.83753542  0.69778382  0.25886035     0.29000
F979        F  0.82748303  0.74101701  0.26461065    -0.20400
H980        H  0.77799239  0.67487252  0.28901987     0.17360
H981        H  0.91778523  0.63111486  0.21791525     0.17370
F982        F  0.86996763  0.56561957  0.24382755    -0.20390
C983        C  0.84954253  0.40466610  0.29812778    -0.21830
C984        C  0.82954316  0.42961617  0.26551098    -0.09870
C985        C  0.83991989  0.42095958  0.22044459     0.28990
C986        C  0.86999707  0.38834637  0.20880883    -0.21830
C987        C  0.89251939  0.36589054  0.24160360    -0.09880
C988        C  0.88175655  0.37425798  0.28663265     0.29000
F989        F  0.90370491  0.35497736  0.32021881    -0.20400
H990        H  0.84270797  0.41108519  0.33270463     0.17360
H991        H  0.87808806  0.38313506  0.17430769     0.17370
F992        F  0.82290979  0.44530249  0.18720548    -0.20390
C993        C  0.33585349  0.27652480  0.18320214    -0.21830
C994        C  0.37735592  0.28670236  0.16624011    -0.09870
C995        C  0.38893384  0.27177804  0.12395214     0.28990
C996        C  0.36056335  0.24525247  0.09998849    -0.21830
C997        C  0.31836273  0.23679799  0.11567750    -0.09880
C998        C  0.30592364  0.25290402  0.15745433     0.29000
F999        F  0.26436182  0.24742341  0.17221659    -0.20400
H1000       H  0.32727916  0.28567528  0.21675750     0.17360
H1001       H  0.37008500  0.23513616  0.06695126     0.17370
F1002       F  0.42923126  0.28018342  0.10717610    -0.20390
C1003       C  0.35597721  0.17266873  0.26915265    -0.21830
C1004       C  0.39996206  0.16342066  0.25987819    -0.09870
C1005       C  0.40935289  0.12981059  0.22851782     0.28990
C1006       C  0.37607653  0.10487455  0.20930027    -0.21830
C1007       C  0.33246022  0.11257495  0.22002809    -0.09880
C1008       C  0.32250828  0.14749307  0.24936985     0.29000
F1009       F  0.28049591  0.15587206  0.26054575    -0.20400
H1010       H  0.34750756  0.19932903  0.29149274     0.17360
H1011       H  0.38466082  0.07727248  0.18813739     0.17370
F1012       F  0.45104899  0.12004708  0.21671448    -0.20390
C1013       C  0.58750772  0.14646136  0.28604058    -0.21830
C1014       C  0.59186280  0.18808341  0.26704655    -0.09870
C1015       C  0.62556004  0.19609174  0.23622236     0.28990
C1016       C  0.65286027  0.16195996  0.22242329    -0.21830
C1017       C  0.64688396  0.11983862  0.23986994    -0.09880
C1018       C  0.61475028  0.11251442  0.27260195     0.29000
F1019       F  0.61015316  0.07239734  0.29212266    -0.20400
H1020       H  0.56130638  0.13945605  0.30916957     0.17360
H1021       H  0.67925938  0.16863018  0.19943843     0.17370
F1022       F  0.63151042  0.23692735  0.21923211    -0.20390
C1023       C  0.60986385  0.29384574  0.15040026    -0.21830
C1024       C  0.56555213  0.28762247  0.14046829    -0.09870
C1025       C  0.55464355  0.25936634  0.10472348     0.28990
C1026       C  0.58678878  0.23750308  0.08066872    -0.21830
C1027       C  0.63087526  0.24289593  0.09087955    -0.09880
C1028       C  0.64225734  0.27121536  0.12619072     0.29000
F1029       F  0.68476359  0.27771131  0.13670859    -0.20400
H1030       H  0.61934178  0.31450087  0.17806917     0.17360
H1031       H  0.57727295  0.21813197  0.05205873     0.17370
F1032       F  0.51250091  0.25255021  0.09265232    -0.20390
C1033       C  0.85523708  0.82500098  0.64861150    -0.21830
C1034       C  0.88588513  0.79275344  0.65687378    -0.09870
C1035       C  0.88494368  0.75230040  0.63322796     0.28990
C1036       C  0.85031826  0.74226520  0.60579137    -0.21830
C1037       C  0.81809894  0.77363470  0.59888449    -0.09880
C1038       C  0.82225713  0.81613233  0.61870429     0.29000
F1039       F  0.79607619  0.85014923  0.60769938    -0.20400
H1040       H  0.85650285  0.85659055  0.66552324     0.17360
H1041       H  0.84967659  0.71073641  0.58875896     0.17370
F1042       F  0.91738765  0.72207252  0.63700237    -0.20390
C1043       C  0.70836736  0.86807817  0.62797071    -0.21830
C1044       C  0.70056512  0.88197614  0.58421189    -0.09870
C1045       C  0.71549328  0.92410026  0.57157012     0.28990
C1046       C  0.74055709  0.94983378  0.59998276    -0.21830
C1047       C  0.75031657  0.93575950  0.64293026    -0.09880
C1048       C  0.73278479  0.89502996  0.65734936     0.29000
F1049       F  0.73956879  0.88124069  0.69938611    -0.20400
H1050       H  0.69808786  0.83547189  0.63849144     0.17360
H1051       H  0.75122027  0.98209384  0.58873761     0.17370
F1052       F  0.70695362  0.94009212  0.53068420    -0.20390
C1053       C  0.71523743  0.84517943  0.35186061    -0.21830
C1054       C  0.69968831  0.86008847  0.39299075    -0.09870
C1055       C  0.71044804  0.90297415  0.40689209     0.28990
C1056       C  0.73889252  0.92896499  0.38211425    -0.21830
C1057       C  0.75416723  0.91442510  0.34092646    -0.09880
C1058       C  0.74168330  0.87237106  0.32567461     0.29000
F1059       F  0.75337847  0.85867041  0.28457075    -0.20400
H1060       H  0.70903532  0.81148546  0.34135877     0.17360
H1061       H  0.74567653  0.96238697  0.39322048     0.17370
F1062       F  0.69660616  0.91819252  0.44666068    -0.20390
C1063       C  0.82367672  0.77744638  0.37527156    -0.21830
C1064       C  0.83456743  0.75474363  0.41428681    -0.09870
C1065       C  0.87840997  0.75272802  0.42706852     0.28990
C1066       C  0.91075023  0.77209313  0.40106592    -0.21830
C1067       C  0.90038061  0.79426266  0.36159046    -0.09880
C1068       C  0.85632865  0.79715719  0.34900599     0.29000
F1069       F  0.84499261  0.81814308  0.31117617    -0.20400
H1070       H  0.78973251  0.78161527  0.36627667     0.17360
H1071       H  0.94443251  0.76903560  0.41153785     0.17370
F1072       F  0.88971356  0.73369829  0.46599894    -0.20390
C1073       C  0.73553004  0.11937775  0.43372290    -0.21830
C1074       C  0.71084578  0.15632021  0.42043984    -0.09870
C1075       C  0.71152878  0.16804909  0.37541417     0.28990
C1076       C  0.73555411  0.14244118  0.34476695    -0.21830
C1077       C  0.75975861  0.10537295  0.35870150    -0.09880
C1078       C  0.75990986  0.09478794  0.40366207     0.29000
F1079       F  0.78173745  0.05863105  0.41817133    -0.20400
H1080       H  0.73658679  0.10961397  0.46814282     0.17360
H1081       H  0.73339904  0.15016755  0.30990408     0.17370
F1082       F  0.68946872  0.20408429  0.36113615    -0.20390
C1083       C  0.71729607  0.13512661  0.59577665    -0.21830
C1084       C  0.70316163  0.17664836  0.61064566    -0.09870
C1085       C  0.71766586  0.19196110  0.65200111     0.28990
C1086       C  0.74548394  0.16610381  0.67775348    -0.21830
C1087       C  0.75997919  0.12478036  0.66247952    -0.09880
C1088       C  0.74670124  0.11031711  0.62049173     0.29000
F1089       F  0.75928480  0.07020135  0.60499017    -0.20400
H1090       H  0.70891449  0.12378319  0.56284586     0.17360
H1091       H  0.75350579  0.17699002  0.71091014     0.17370
F1092       F  0.70706329  0.23319732  0.66604290    -0.20390
C1093       C  0.86095520  0.30824710  0.60806650    -0.21830
C1094       C  0.83110733  0.27679147  0.59317754    -0.09870
C1095       C  0.83576450  0.23245353  0.60798416     0.28990
C1096       C  0.86883977  0.22046779  0.63738434    -0.21830
C1097       C  0.90016586  0.25132131  0.65020365    -0.09880
C1098       C  0.89582460  0.29561708  0.63508317     0.29000
F1099       F  0.92601805  0.32692341  0.64497047    -0.20400
H1100       H  0.85924574  0.34192325  0.59614079     0.17360
H1101       H  0.87150906  0.18638008  0.64787870     0.17370
F1102       F  0.81010858  0.19955072  0.59228628    -0.20390
C1103       C  0.84914715  0.23729196  0.41222477    -0.21830
C1104       C  0.81635772  0.26830913  0.40295011    -0.09870
C1105       C  0.80929076  0.28186663  0.35950850     0.28990
C1106       C  0.83650285  0.26597978  0.32601264    -0.21830
C1107       C  0.87064498  0.23633257  0.33576799    -0.09880
C1108       C  0.87588584  0.22105658  0.37892009     0.29000
F1109       F  0.90938280  0.19382909  0.38961884    -0.20400
H1110       H  0.85361954  0.22518585  0.44561123     0.17360
H1111       H  0.83287163  0.27895786  0.29286483     0.17370
F1112       F  0.77622392  0.30988869  0.34960486    -0.20390
C1113       C  0.15160174  0.73991737  0.36221374    -0.21830
C1114       C  0.14050803  0.74650466  0.40658923    -0.09870
C1115       C  0.10427600  0.77308044  0.41730288     0.28990
C1116       C  0.07975332  0.79290758  0.38431754    -0.21830
C1117       C  0.08988990  0.78545080  0.33997920    -0.09880
C1118       C  0.12589415  0.75852783  0.32897869     0.29000
F1119       F  0.13492694  0.74892776  0.28606063    -0.20400
H1120       H  0.18066689  0.72152474  0.35343368     0.17360
H1121       H  0.05092867  0.81157876  0.39341893     0.17370
F1122       F  0.09403017  0.78179771  0.46012242    -0.20390
C1123       C  0.25443223  0.90118670  0.59151117    -0.21830
C1124       C  0.24908249  0.85862464  0.60845340    -0.09870
C1125       C  0.22542809  0.85243580  0.64784409     0.28990
C1126       C  0.20631455  0.88840867  0.66931961    -0.21830
C1127       C  0.21084511  0.93093191  0.65171918    -0.09880
C1128       C  0.23509475  0.93700612  0.61251766     0.29000
F1129       F  0.23996073  0.97774671  0.59435673    -0.20400
H1130       H  0.27068890  0.90630237  0.56004797     0.17360
H1131       H  0.18944716  0.88326467  0.70042302     0.17370
F1132       F  0.22034142  0.81140449  0.66498179    -0.20390
C1133       C  0.13944669  0.75365914  0.63633414    -0.21830
C1134       C  0.12634418  0.73790682  0.59457162    -0.09870
C1135       C  0.08353403  0.74662278  0.58054721     0.28990
C1136       C  0.05550072  0.77207887  0.60617443    -0.21830
C1137       C  0.06814137  0.78839803  0.64773192    -0.09880
C1138       C  0.11048487  0.77853162  0.66301943     0.29000
F1139       F  0.12311682  0.79117486  0.70411389    -0.20400
H1140       H  0.17246731  0.74791345  0.64746314     0.17360
H1141       H  0.02274506  0.77781625  0.59397510     0.17370
F1142       F  0.06969065  0.73278595  0.54018452    -0.20390
C1143       C  0.18796507  0.90653999  0.37690501    -0.21830
C1144       C  0.22006605  0.93010668  0.35434324    -0.09870
C1145       C  0.26465496  0.92173451  0.36418622     0.28990
C1146       C  0.27644222  0.88984254  0.39514370    -0.21830
C1147       C  0.24436265  0.86830213  0.41963091    -0.09880
C1148       C  0.19974182  0.87729834  0.41043407     0.29000
F1149       F  0.16702096  0.85969078  0.43497968    -0.20400
H1150       H  0.15373634  0.91322412  0.37095597     0.17360
H1151       H  0.31067119  0.88440134  0.40225141     0.17370
F1152       F  0.29734209  0.94574059  0.34580936    -0.20390
loop_ 
_geom_bond_atom_site_label_1 
_geom_bond_atom_site_label_2 
_geom_bond_distance 
_geom_bond_site_symmetry_2 
_ccdc_geom_bond_type 
O1           C16   1.267       .  A
O1           Al9   1.918       .  S
C2           O12   1.256       .  A
C2            O3   1.288       .  A
C2         C1114   1.453       .  S
O3           Al5   2.004       .  S
O4            C6   1.268       .  A
O4           Al5   1.928       .  S
Al5          O13   1.991       .  S
Al5          O15   1.927       .  S
Al5          O14   1.763       .  S
C6           O19   1.268       .  A
C6          C312   1.508       .  S
O7           C17   1.267       .  A
O7           Al9   1.972       .  S
O8           C21   1.263       .  A
O8          Al18   1.856       .  S
Al9          O22   1.982       .  S
Al9          O19   1.930       .  S
Al9          O14   1.763       .  S
O10          C17   1.243       .  A
O10         Al18   1.878       .  S
O11          C20   1.238       .  A
O11         Al18   1.861       .  S
O12         Al18   1.832       .  S
O13          C20   1.265       .  A
O14         Al18   1.763       .  S
O15          C16   1.269       .  A
C16         C303   1.501       .  S
C17        C1147   1.480       .  S
C20        C1134   1.477       .  S
C21          O22   1.286       .  A
C21        C1124   1.453       .  S
O23          C38   1.269       .  A
O23         Al31   1.924       .  S
C24          O34   1.262       .  A
C24          O25   1.292       .  A
C24        C1104   1.448       .  S
O25         Al27   2.002       .  S
O26          C28   1.269       .  A
O26         Al27   1.938       .  S
Al27         O35   1.996       .  S
Al27         O37   1.951       .  S
Al27         O36   1.754       .  S
C28          O41   1.269       .  A
C28         C330   1.513       .  S
O29          C39   1.268       .  A
O29         Al31   2.003       .  S
O30          C43   1.253       .  A
O30         Al40   1.824       .  S
Al31         O44   2.017       .  S
Al31         O41   1.931       .  S
Al31         O36   1.765       .  S
O32          C39   1.241       .  A
O32         Al40   1.884       .  S
O33          C42   1.237       .  A
O33         Al40   1.870       .  S
O34         Al40   1.828       .  S
O35          C42   1.268       .  A
O36         Al40   1.762       .  S
O37          C38   1.275       .  A
C38         C283   1.514       .  S
C39        C1074   1.493       .  S
C42        C1094   1.487       .  S
C43          O44   1.290       .  A
C43        C1084   1.449       .  S
O45          C60   1.264       .  A
O45         Al53   1.893       .  S
C46          O56   1.254       .  A
C46          O47   1.292       .  A
C46        C1037   1.458       .  S
O47         Al49   1.993       .  S
O48          C50   1.264       .  A
O48         Al49   1.919       .  S
Al49         O57   1.962       .  S
Al49         O59   1.940       .  S
Al49         O58   1.760       .  S
C50          O63   1.269       .  A
C50         C294   1.503       .  S
O51          C61   1.265       .  A
O51         Al53   1.983       .  S
O52          C65   1.256       .  A
O52         Al62   1.822       .  S
Al53         O66   2.011       .  S
Al53         O63   1.926       .  S
Al53         O58   1.758       .  S
O54          C61   1.248       .  A
O54         Al62   1.896       .  S
O55          C64   1.242       .  A
O55         Al62   1.877       .  S
O56         Al62   1.807       .  S
O57          C64   1.262       .  A
O58         Al62   1.761       .  S
O59          C60   1.272       .  A
C60         C319   1.496       .  S
C61        C1044   1.489       .  S
C64        C1064   1.465       .  S
C65          O66   1.290       .  A
C65        C1054   1.448       .  S
O67          C82   1.266       .  A
O67         Al75   1.921       .  S
C68          O78   1.267       .  A
C68          O69   1.292       .  A
C68        C1014   1.453       .  S
O69         Al71   1.988       .  S
O70          C72   1.266       .  A
O70         Al71   1.917       .  S
Al71         O79   1.999       .  S
Al71         O81   1.923       .  S
Al71         O80   1.755       .  S
C72          O85   1.270       .  A
C72         C332   1.503       .  S
O73          C83   1.266       .  A
O73         Al75   1.999       .  S
O74          C87   1.263       .  A
O74         Al84   1.837       .  S
Al75         O88   1.999       .  S
Al75         O85   1.929       .  S
Al75         O80   1.756       .  S
O76          C83   1.237       .  A
O76         Al84   1.873       .  S
O77          C86   1.238       .  A
O77         Al84   1.879       .  S
O78         Al84   1.846       .  S
O79          C86   1.267       .  A
O80         Al84   1.767       .  S
O81          C82   1.268       .  A
C82         C276   1.502       .  S
C83        C1024   1.489       .  S
C86        C1004   1.493       .  S
C87          O88   1.292       .  A
C87         C994   1.443       .  S
O89         C104   1.269       .  A
O89         Al97   1.920       .  S
C90         O100   1.259       .  A
C90          O91   1.283       .  A
C90         C974   1.442       .  S
O91         Al93   1.978       .  S
O92          C94   1.269       .  A
O92         Al93   1.927       .  S
Al93        O101   1.973       .  S
Al93        O103   1.931       .  S
Al93        O102   1.766       .  S
C94         O107   1.265       .  A
C94         C321   1.500       .  S
O95         C105   1.263       .  A
O95         Al97   1.975       .  S
O96         C109   1.253       .  A
O96        Al106   1.824       .  S
Al97        O110   1.988       .  S
Al97        O107   1.914       .  S
Al97        O102   1.764       .  S
O98         C105   1.241       .  A
O98        Al106   1.873       .  S
O99         C108   1.240       .  A
O99        Al106   1.869       .  S
O100       Al106   1.835       .  S
O101        C108   1.267       .  A
O102       Al106   1.769       .  S
O103        C104   1.267       .  A
C104        C328   1.505       .  S
C105        C964   1.472       .  S
C108        C984   1.479       .  S
C109        O110   1.284       .  A
C109        C957   1.447       .  S
O111        C126   1.268       .  A
O111       Al119   1.921       .  S
C112        O122   1.259       .  A
C112        O113   1.286       .  A
C112        C927   1.446       .  S
O113       Al115   1.986       .  S
O114        C116   1.266       .  A
O114       Al115   1.926       .  S
Al115       O123   1.977       .  S
Al115       O125   1.936       .  S
Al115       O124   1.762       .  S
C116        O129   1.269       .  A
C116        C323   1.506       .  S
O117        C127   1.265       .  A
O117       Al119   1.980       .  S
O118        C131   1.253       .  A
O118       Al128   1.828       .  S
Al119       O132   2.010       .  S
Al119       O129   1.927       .  S
Al119       O124   1.765       .  S
O120        C127   1.243       .  A
O120       Al128   1.877       .  S
O121        C130   1.241       .  A
O121       Al128   1.873       .  S
O122       Al128   1.831       .  S
O123        C130   1.266       .  A
O124       Al128   1.765       .  S
O125        C126   1.271       .  A
C126        C314   1.506       .  S
C127        C934   1.477       .  S
C130        C914   1.482       .  S
C131        O132   1.287       .  A
C131        C944   1.453       .  S
O133        C148   1.267       .  A
O133       Al141   1.912       .  S
C134        O144   1.259       .  A
C134        O135   1.287       .  A
C134        C877   1.466       .  S
O135       Al137   1.979       .  S
O136        C138   1.267       .  A
O136       Al137   1.925       .  S
Al137       O145   1.972       .  S
Al137       O147   1.940       .  S
Al137       O146   1.760       .  S
C138        O151   1.265       .  A
C138        C278   1.499       .  S
O139        C149   1.262       .  A
O139       Al141   1.968       .  S
O140        C153   1.252       .  A
O140       Al150   1.825       .  S
Al141       O154   1.997       .  S
Al141       O151   1.914       .  S
Al141       O146   1.768       .  S
O142        C149   1.244       .  A
O142       Al150   1.879       .  S
O143        C152   1.243       .  A
O143       Al150   1.872       .  S
O144       Al150   1.831       .  S
O145        C152   1.266       .  A
O146       Al150   1.766       .  S
O147        C148   1.271       .  A
C148        C310   1.503       .  S
C149        C887   1.471       .  S
C152        C907   1.479       .  S
C153        O154   1.284       .  A
C153        C897   1.446       .  S
O155        C170   1.264       .  A
O155       Al163   1.904       .  S
C156        O166   1.260       .  A
C156        O157   1.292       .  A
C156        C867   1.462       .  S
O157       Al159   1.996       .  S
O158        C160   1.264       .  A
O158       Al159   1.896       .  S
Al159       O167   1.980       .  S
Al159       O169   1.929       .  S
Al159       O168   1.757       .  S
C160        O173   1.271       .  A
C160        C267   1.497       .  S
O161        C171   1.261       .  A
O161       Al163   1.973       .  S
O162        C175   1.256       .  A
O162       Al172   1.813       .  S
Al163       O176   2.005       .  S
Al163       O173   1.938       .  S
Al163       O168   1.753       .  S
O164        C171   1.241       .  A
O164       Al172   1.879       .  S
O165        C174   1.244       .  A
O165       Al172   1.893       .  S
O166       Al172   1.818       .  S
O167        C174   1.264       .  A
O168       Al172   1.768       .  S
O169        C170   1.267       .  A
C170        C305   1.498       .  S
C171        C834   1.472       .  S
C174        C857   1.487       .  S
C175        O176   1.295       .  A
C175        C844   1.463       .  S
O177        C192   1.267       .  A
O177       Al185   1.908       .  S
C178        O188   1.263       .  A
C178        O179   1.285       .  A
C178        C814   1.440       .  S
O179       Al181   1.970       .  S
O180        C182   1.267       .  A
O180       Al181   1.928       .  S
Al181       O189   1.975       .  S
Al181       O191   1.931       .  S
Al181       O190   1.762       .  S
C182        O195   1.264       .  A
C182        C301   1.499       .  S
O183        C193   1.265       .  A
O183       Al185   1.979       .  S
O184        C197   1.256       .  A
O184       Al194   1.831       .  S
Al185       O198   1.988       .  S
Al185       O195   1.907       .  S
Al185       O190   1.766       .  S
O186        C193   1.241       .  A
O186       Al194   1.883       .  S
O187        C196   1.241       .  A
O187       Al194   1.870       .  S
O188       Al194   1.847       .  S
O189        C196   1.266       .  A
O190       Al194   1.769       .  S
O191        C192   1.268       .  A
C192        C296   1.500       .  S
C193        C824   1.488       .  S
C196        C794   1.478       .  S
C197        O198   1.285       .  A
C197        C807   1.447       .  S
O199        C214   1.268       .  A
O199       Al207   1.926       .  S
C200        O210   1.258       .  A
C200        O201   1.290       .  A
C200        C754   1.449       .  S
O201       Al203   2.006       .  S
O202        C204   1.267       .  A
O202       Al203   1.917       .  S
Al203       O211   1.988       .  S
Al203       O213   1.934       .  S
Al203       O212   1.760       .  S
C204        O217   1.271       .  A
C204        C292   1.511       .  S
O205        C215   1.267       .  A
O205       Al207   1.988       .  S
O206        C219   1.264       .  A
O206       Al216   1.842       .  S
Al207       O220   1.999       .  S
Al207       O217   1.946       .  S
Al207       O212   1.760       .  S
O208        C215   1.241       .  A
O208       Al216   1.883       .  S
O209        C218   1.240       .  A
O209       Al216   1.874       .  S
O210       Al216   1.830       .  S
O211        C218   1.265       .  A
O212       Al216   1.766       .  S
O213        C214   1.270       .  A
C214        C285   1.508       .  S
C215        C764   1.491       .  S
C218        C784   1.482       .  S
C219        O220   1.292       .  A
C219        C774   1.463       .  S
O221        C236   1.269       .  A
O221       Al229   1.933       .  S
C222        O232   1.264       .  A
C222        O223   1.287       .  A
C222        C714   1.454       .  S
O223       Al225   1.985       .  S
O224        C226   1.267       .  A
O224       Al225   1.918       .  S
Al225       O233   1.962       .  S
Al225       O235   1.938       .  S
Al225       O234   1.766       .  S
C226        O239   1.270       .  A
C226        C265   1.502       .  S
O227        C237   1.266       .  A
O227       Al229   1.994       .  S
O228        C241   1.258       .  A
O228       Al238   1.834       .  S
Al229       O242   1.994       .  S
Al229       O239   1.929       .  S
Al229       O234   1.758       .  S
O230        C237   1.239       .  A
O230       Al238   1.870       .  S
O231        C240   1.243       .  A
O231       Al238   1.881       .  S
O232       Al238   1.857       .  S
O233        C240   1.266       .  A
O234       Al238   1.772       .  S
O235        C236   1.268       .  A
C236        C287   1.514       .  S
C237        C747   1.481       .  S
C240        C734   1.480       .  S
C241        O242   1.288       .  A
C241        C724   1.450       .  S
O243        C258   1.265       .  A
O243       Al251   1.906       .  S
C244        O254   1.263       .  A
C244        O245   1.288       .  A
C244        C694   1.447       .  S
O245       Al247   1.976       .  S
O246        C248   1.267       .  A
O246       Al247   1.923       .  S
Al247       O255   1.986       .  S
Al247       O257   1.928       .  S
Al247       O256   1.757       .  S
C248        O261   1.265       .  A
C248        C269   1.499       .  S
O249        C259   1.264       .  A
O249       Al251   1.977       .  S
O250        C263   1.256       .  A
O250       Al260   1.820       .  S
Al251       O264   1.990       .  S
Al251       O261   1.913       .  S
Al251       O256   1.765       .  S
O252        C259   1.239       .  A
O252       Al260   1.882       .  S
O253        C262   1.241       .  A
O253       Al260   1.876       .  S
O254       Al260   1.841       .  S
O255        C262   1.266       .  A
O256       Al260   1.768       .  S
O257        C258   1.269       .  A
C258        C274   1.497       .  S
C259        C704   1.486       .  S
C262        C687   1.483       .  S
C263        O264   1.287       .  A
C263        C674   1.440       .  S
C265        C266   1.408       .  A
C265        C270   1.412       .  A
C266        C267   1.413       .  A
C266        H271   1.083       .  S
C267        C268   1.410       .  A
C268        C269   1.413       .  A
C268        H272   1.083       .  S
C269        C270   1.415       .  A
C270        H273   1.083       .  S
C274        C275   1.413       .  A
C274        C279   1.412       .  A
C275        C276   1.409       .  A
C275        H280   1.083       .  S
C276        C277   1.412       .  A
C277        C278   1.415       .  A
C277        H281   1.083       .  S
C278        C279   1.411       .  A
C279        H282   1.083       .  S
C283        C284   1.415       .  A
C283        C288   1.421       .  A
C284        C285   1.416       .  A
C284        H289   1.083       .  S
C285        C286   1.415       .  A
C286        C287   1.415       .  A
C286        H290   1.083       .  S
C287        C288   1.419       .  A
C288        H291   1.083       .  S
C292        C293   1.420       .  A
C292        C297   1.418       .  A
C293        C294   1.419       .  A
C293        H298   1.083       .  S
C294        C295   1.407       .  A
C295        C296   1.407       .  A
C295        H299   1.083       .  S
C296        C297   1.412       .  A
C297        H300   1.083       .  S
C301        C302   1.415       .  A
C301        C306   1.412       .  A
C302        C303   1.410       .  A
C302        H307   1.083       .  S
C303        C304   1.409       .  A
C304        C305   1.413       .  A
C304        H308   1.083       .  S
C305        C306   1.412       .  A
C306        H309   1.083       .  S
C310        C311   1.415       .  A
C310        C315   1.413       .  A
C311        C312   1.416       .  A
C311        H316   1.083       .  S
C312        C313   1.417       .  A
C313        C314   1.415       .  A
C313        H317   1.083       .  S
C314        C315   1.411       .  A
C315        H318   1.083       .  S
C319        C320   1.409       .  A
C319        C324   1.412       .  A
C320        C321   1.412       .  A
C320        H325   1.083       .  S
C321        C322   1.420       .  A
C322        C323   1.414       .  A
C322        H326   1.083       .  S
C323        C324   1.409       .  A
C324        H327   1.083       .  S
C328        C329   1.420       .  A
C328        C333   1.410       .  A
C329        C330   1.419       .  A
C329        H334   1.083       .  S
C330        C331   1.417       .  A
C331        C332   1.415       .  A
C331        H335   1.083       .  S
C332        C333   1.408       .  A
C333        H336   1.083       .  S
O337        C352   1.269       .  A
O337       Al345   1.924       .  S
C338        O348   1.260       .  A
C338        O339   1.290       .  A
C338        C804   1.447       .  S
O339       Al341   1.997   1_565  S
O340        C342   1.268       .  A
O340       Al341   1.933   1_565  S
Al341       O349   1.986       .  S
Al341       O351   1.938       .  S
Al341       O350   1.757       .  S
C342        O355   1.266       .  A
C342        C666   1.507       .  S
O343        C353   1.268       .  A
O343       Al345   1.996   1_565  S
O344        C357   1.253       .  A
O344       Al354   1.828       .  S
Al345       O358   2.008       .  S
Al345       O355   1.920   1_545  S
Al345       O350   1.767       .  S
O346        C353   1.242   1_545  A
O346       Al354   1.877       .  S
O347        C356   1.237       .  A
O347       Al354   1.865       .  S
O348       Al354   1.829   1_565  S
O349        C356   1.265       .  A
O350       Al354   1.760       .  S
O351        C352   1.273       .  A
C352        C359   1.507       .  S
C353       C1047   1.483       .  S
C356        C737   1.480       .  S
C357        O358   1.286       .  A
C357       C1087   1.451       .  S
C359        C360   1.416       .  A
C359        C364   1.414       .  A
C360        C361   1.417       .  A
C360        H365   1.083       .  S
C361        C373   1.510       .  S
C361        C362   1.415       .  A
C362        C363   1.416       .  A
C362        H366   1.083       .  S
C363        C616   1.506       .  S
C363        C364   1.413       .  A
C364        H367   1.083       .  S
O368        C383   1.269       .  A
O368       Al376   1.928   1_455  S
C369        O379   1.257       .  A
C369        O370   1.290       .  A
C369        C777   1.452       .  S
O370       Al372   2.006       .  S
O371        C373   1.269       .  A
O371       Al372   1.931       .  S
Al372       O380   1.988   1_655  S
Al372       O382   1.939   1_655  S
Al372       O381   1.761       .  S
C373        O386   1.269       .  A
O374        C384   1.269       .  A
O374       Al376   1.987       .  S
O375        C388   1.260       .  A
O375       Al385   1.833   1_455  S
Al376       O389   1.987   1_655  S
Al376       O386   1.931       .  S
Al376       O381   1.762       .  S
O377        C384   1.241       .  A
O377       Al385   1.882       .  S
O378        C387   1.237       .  A
O378       Al385   1.865   1_455  S
O379       Al385   1.823       .  S
O380        C387   1.265       .  A
O381       Al385   1.767       .  S
O382        C383   1.270       .  A
C383        C416   1.511       .  S
C384       C1097   1.491       .  S
C387        C837   1.474       .  S
C388        O389   1.286       .  A
C388        C697   1.442       .  S
O390        C405   1.272       .  A
O390       Al398   1.949   1_565  S
C391        O401   1.244       .  A
C391        O392   1.260       .  A
C391        C717   1.464       .  S
O392       Al394   1.939       .  S
O393        C395   1.273       .  A
O393       Al394   1.952       .  S
Al394       O402   2.013   1_545  S
Al394       O404   1.889   1_545  S
Al394       O403   1.760       .  S
C395        O408   1.261       .  A
C395        C414   1.500       .  S
O396        C406   1.291       .  A
O396       Al398   2.008       .  S
O397        C410   1.244   1_545  A
O397       Al407   1.882       .  S
Al398       O411   1.941   1_545  S
Al398       O408   1.891       .  S
Al398       O403   1.763       .  S
O399        C406   1.263       .  A
O399       Al407   1.863       .  S
O400        C409   1.262       .  A
O400       Al407   1.865   1_565  S
O401       Al407   1.884       .  S
O402        C409   1.292       .  A
O403       Al407   1.772       .  S
O404        C405   1.261       .  A
C405        C447   1.499       .  S
C406        C707   1.470       .  S
C409        C827   1.471       .  S
C410        O411   1.261       .  A
C410       C1127   1.464       .  S
C412        C551   1.503       .  S
C412        C413   1.412       .  A
C412        C417   1.419       .  A
C413        C414   1.407       .  A
C413        H418   1.083       .  S
C414        C415   1.415       .  A
C415        C416   1.413       .  A
C415        H419   1.083       .  S
C416        C417   1.418       .  A
C417        H420   1.083       .  S
O421        C436   1.266       .  A
O421       Al429   1.919   1_455  S
C422        O432   1.250       .  A
C422        O423   1.285       .  A
C422       C1034   1.443       .  S
O423       Al425   1.997       .  S
O424        C426   1.269       .  A
O424       Al425   1.916       .  S
Al425       O433   1.989   1_655  S
Al425       O435   1.914   1_655  S
Al425       O434   1.767       .  S
C426        O439   1.274       .  A
C426        C668   1.507       .  S
O427        C437   1.263       .  A
O427       Al429   1.977       .  S
O428        C441   1.250       .  A
O428       Al438   1.793   1_455  S
Al429       O442   2.006   1_655  S
Al429       O439   1.947       .  S
Al429       O434   1.756       .  S
O430        C437   1.241       .  A
O430       Al438   1.878       .  S
O431        C440   1.246   1_655  A
O431       Al438   1.890       .  S
O432       Al438   1.812       .  S
O433        C440   1.268       .  A
O434       Al438   1.758       .  S
O435        C436   1.264       .  A
C436        C443   1.497       .  S
C437        C767   1.482       .  S
C440       C1137   1.484       .  S
C441        O442   1.293       .  A
C441        C847   1.464       .  S
C443        C444   1.413       .  A
C443        C448   1.414       .  A
C444        C445   1.412       .  A
C444        H449   1.083       .  S
C445        C467   1.501       .  S
C445        C446   1.410       .  A
C446        C447   1.414       .  A
C446        H450   1.083       .  S
C447        C448   1.408       .  A
C448        H451   1.083       .  S
O452        C467   1.268       .  A
O452       Al460   1.919   1_556  S
C453        O463   1.254       .  A
C453        O454   1.285       .  A
C453        C894   1.445       .  S
O454       Al456   1.990       .  S
O455        C457   1.267       .  A
O455       Al456   1.925       .  S
Al456       O464   1.976   1_554  S
Al456       O466   1.925   1_554  S
Al456       O465   1.765   1_554  S
C457        O470   1.265       .  A
C457        C496   1.503       .  S
O458        C468   1.267       .  A
O458       Al460   1.974       .  S
O459        C472   1.263       .  A
O459       Al469   1.849       .  S
Al460       O473   1.972   1_554  S
Al460       O470   1.920       .  S
Al460       O465   1.764   1_554  S
O461        C468   1.243       .  A
O461       Al469   1.878   1_554  S
O462        C471   1.240       .  A
O462       Al469   1.867       .  S
O463       Al469   1.821   1_554  S
O464        C471   1.263       .  A
O465       Al469   1.767       .  S
O466        C467   1.268       .  A
C468        C917   1.484       .  S
C471        C854   1.471       .  S
C472        O473   1.283       .  A
C472        C817   1.442       .  S
O474        C489   1.265       .  A
O474       Al482   1.911   1_455  S
C475        O485   1.264       .  A
C475        O476   1.287       .  A
C475        C977   1.444       .  S
O476       Al478   1.976       .  S
O477        C479   1.266       .  A
O477       Al478   1.913       .  S
Al478       O486   1.969   1_655  S
Al478       O488   1.928   1_655  S
Al478       O487   1.761       .  S
C479        O492   1.269       .  A
C479        C527   1.503       .  S
O480        C490   1.263       .  A
O480       Al482   1.976       .  S
O481        C494   1.259       .  A
O481       Al491   1.837   1_455  S
Al482       O495   2.002   1_655  S
Al482       O492   1.935       .  S
Al482       O487   1.759       .  S
O483        C490   1.241       .  A
O483       Al491   1.879       .  S
O484        C493   1.242   1_655  A
O484       Al491   1.882       .  S
O485       Al491   1.850       .  S
O486        C493   1.265       .  A
O487       Al491   1.770       .  S
O488        C489   1.268       .  A
C489        C500   1.500       .  S
C490       C1067   1.480       .  S
C493        C904   1.483       .  S
C494        O495   1.291       .  A
C494       C1117   1.453       .  S
C496        C497   1.416       .  A
C496        C501   1.413       .  A
C497        C498   1.413       .  A
C497        H502   1.083       .  S
C498        C563   1.503       .  S
C498        C499   1.411       .  A
C499        C500   1.413       .  A
C499        H503   1.083       .  S
C500        C501   1.413       .  A
C501        H504   1.083       .  S
O505        C520   1.266       .  A
O505       Al513   1.913       .  S
C506        O516   1.261       .  A
C506        O507   1.292       .  A
C506        C757   1.447       .  S
O507       Al509   1.992   1_556  S
O508        C510   1.267       .  A
O508       Al509   1.922   1_556  S
Al509       O517   2.006       .  S
Al509       O519   1.923       .  S
Al509       O518   1.758       .  S
C510        O523   1.269       .  A
C510        C664   1.505       .  S
O511        C521   1.265       .  A
O511       Al513   1.979   1_556  S
O512        C525   1.268       .  A
O512       Al522   1.856       .  S
Al513       O526   1.982       .  S
Al513       O523   1.930   1_554  S
Al513       O518   1.754       .  S
O514        C521   1.238       .  A
O514       Al522   1.878   1_556  S
O515        C524   1.237       .  A
O515       Al522   1.876       .  S
O516       Al522   1.838   1_556  S
O517        C524   1.267       .  A
O518       Al522   1.768       .  S
O519        C520   1.267       .  A
C520        C531   1.499       .  S
C521        C797   1.483       .  S
C524        C967   1.493       .  S
C525        O526   1.291       .  A
C525        C924   1.452       .  S
C527        C528   1.413       .  A
C527        C532   1.414       .  A
C528        C529   1.416       .  A
C528        H533   1.083       .  S
C529        C648   1.500       .  S
C529        C530   1.409       .  A
C530        C531   1.412       .  A
C530        H534   1.083       .  S
C531        C532   1.412       .  A
C532        H535   1.083       .  S
O536        C551   1.265       .  A
O536       Al544   1.924   1_556  S
C537        O547   1.262       .  A
C537        O538   1.291       .  A
C537        C997   1.442       .  S
O538       Al540   2.000       .  S
O539        C541   1.268       .  A
O539       Al540   1.908       .  S
Al540       O548   2.000   1_554  S
Al540       O550   1.919   1_554  S
Al540       O549   1.754       .  S
C541        O554   1.272       .  A
C541        C604   1.502       .  S
O542        C552   1.264       .  A
O542       Al544   1.997       .  S
O543        C556   1.258       .  A
O543       Al553   1.805   1_556  S
Al544       O557   2.007   1_554  S
Al544       O554   1.939       .  S
Al544       O549   1.753       .  S
O545        C552   1.234       .  A
O545       Al553   1.859       .  S
O546        C555   1.244       .  A
O546       Al553   1.897   1_556  S
O547       Al553   1.840       .  S
O548        C555   1.268       .  A
O549       Al553   1.766       .  S
O550        C551   1.267       .  A
C552        C884   1.478       .  S
C555        C744   1.497       .  S
C556        O557   1.296       .  A
C556        C864   1.453       .  S
O558        C573   1.268       .  A
O558       Al566   1.921       .  S
C559        O569   1.251       .  A
C559        O560   1.287       .  A
C559        C947   1.456       .  S
O560       Al562   2.003   1_565  S
O561        C563   1.265       .  A
O561       Al562   1.918   1_565  S
Al562       O570   1.966       .  S
Al562       O572   1.929       .  S
Al562       O571   1.764       .  S
C563        O576   1.268       .  A
O564        C574   1.268       .  A
O564       Al566   1.971   1_565  S
O565        C578   1.258       .  A
O565       Al575   1.830       .  S
Al566       O579   1.982       .  S
Al566       O576   1.930   1_545  S
Al566       O571   1.769       .  S
O567        C574   1.244   1_545  A
O567       Al575   1.876       .  S
O568        C577   1.243       .  A
O568       Al575   1.875       .  S
O569       Al575   1.817   1_565  S
O570        C577   1.261       .  A
O571       Al575   1.764       .  S
O572        C573   1.270       .  A
C573        C602   1.503       .  S
C574       C1144   1.479       .  S
C577       C1007   1.472       .  S
C578        O579   1.282       .  A
C578        C677   1.441       .  S
O580        C595   1.268       .  A
O580       Al588   1.928   1_455  S
C581        O591   1.258       .  A
C581        O582   1.286       .  A
C581       C1107   1.452       .  S
O582       Al584   1.985       .  S
O583        C585   1.267       .  A
O583       Al584   1.912       .  S
Al584       O592   1.986   1_655  S
Al584       O594   1.916   1_655  S
Al584       O593   1.764       .  S
C585        O598   1.268       .  A
C585        C657   1.502       .  S
O586        C596   1.265       .  A
O586       Al588   1.981       .  S
O587        C600   1.262       .  A
O587       Al597   1.832   1_455  S
Al588       O601   1.987   1_655  S
Al588       O598   1.931       .  S
Al588       O593   1.762       .  S
O589        C596   1.237       .  A
O589       Al597   1.865       .  S
O590        C599   1.241   1_655  A
O590       Al597   1.880       .  S
O591       Al597   1.836       .  S
O592        C599   1.267       .  A
O593       Al597   1.769       .  S
O594        C595   1.266       .  A
C595        C606   1.502       .  S
C596        C987   1.479       .  S
C599        C684   1.489       .  S
C600        O601   1.289       .  A
C600        C874   1.461       .  S
C602        C603   1.410       .  A
C602        C607   1.412       .  A
C603        C604   1.413       .  A
C603        H608   1.083       .  S
C604        C605   1.413       .  A
C605        C606   1.415       .  A
C605        H609   1.083       .  S
C606        C607   1.416       .  A
C607        H610   1.083       .  S
O611        C626   1.270       .  A
O611       Al619   1.933       .  S
C612        O622   1.259       .  A
C612        O613   1.287       .  A
C612        C727   1.449       .  S
O613       Al615   1.994   1_556  S
O614        C616   1.268       .  A
O614       Al615   1.926   1_556  S
Al615       O623   1.974       .  S
Al615       O625   1.929       .  S
Al615       O624   1.761       .  S
C616        O629   1.267       .  A
O617        C627   1.267       .  A
O617       Al619   1.985   1_556  S
O618        C631   1.259       .  A
O618       Al628   1.833       .  S
Al619       O632   1.991       .  S
Al619       O629   1.928   1_554  S
Al619       O624   1.763       .  S
O620        C627   1.240       .  A
O620       Al628   1.869   1_556  S
O621        C630   1.241       .  A
O621       Al628   1.871       .  S
O622       Al628   1.838   1_556  S
O623        C630   1.264       .  A
O624       Al628   1.770       .  S
O625        C626   1.269       .  A
C626        C655   1.508       .  S
C627        C787   1.472       .  S
C630       C1027   1.469       .  S
C631        O632   1.285       .  A
C631        C954   1.446       .  S
O633        C648   1.264       .  A
O633       Al641   1.905   1_565  S
C634        O644   1.259       .  A
C634        O635   1.291       .  A
C634       C1017   1.447       .  S
O635       Al637   2.004       .  S
O636        C638   1.267       .  A
O636       Al637   1.924       .  S
Al637       O645   1.991   1_545  S
Al637       O647   1.938   1_545  S
Al637       O646   1.758       .  S
C638        O651   1.270       .  A
C638        C659   1.505       .  S
O639        C649   1.263       .  A
O639       Al641   1.976       .  S
O640        C653   1.257       .  A
O640       Al650   1.823   1_565  S
Al641       O654   2.006   1_545  S
Al641       O651   1.928       .  S
Al641       O646   1.758       .  S
O642        C649   1.244       .  A
O642       Al650   1.885       .  S
O643        C652   1.241   1_545  A
O643       Al650   1.873       .  S
O644       Al650   1.825       .  S
O645        C652   1.266       .  A
O646       Al650   1.764       .  S
O647        C648   1.271       .  A
C649       C1077   1.475       .  S
C652        C937   1.481       .  S
C653        O654   1.290       .  A
C653       C1057   1.445       .  S
C655        C656   1.416       .  A
C655        C660   1.419       .  A
C656        C657   1.415       .  A
C656        H661   1.083       .  S
C657        C658   1.410       .  A
C658        C659   1.409       .  A
C658        H662   1.083       .  S
C659        C660   1.415       .  A
C660        H663   1.083       .  S
C664        C665   1.416       .  A
C664        C669   1.417       .  A
C665        C666   1.414       .  A
C665        H670   1.083       .  S
C666        C667   1.414       .  A
C667        C668   1.414       .  A
C667        H671   1.083       .  S
C668        C669   1.413       .  A
C669        H672   1.083       .  S
C673        C674   1.396       .  A
C673        C678   1.388       .  A
C673        H680   1.084       .  S
C674        C675   1.408       .  A
C675        C676   1.394       .  A
C675        F682   1.358       .  S
C676        C677   1.398       .  A
C676        H681   1.084       .  S
C677        C678   1.405       .  A
C678        F679   1.357       .  S
C683        C684   1.419       .  A
C683        C688   1.399       .  A
C683        H690   1.081       .  S
C684        C685   1.395       .  A
C685        C686   1.401       .  A
C685        F692   1.357       .  S
C686        C687   1.418       .  A
C686        H691   1.077       .  S
C687        C688   1.393       .  A
C688        F689   1.357       .  S
C693        C694   1.409       .  A
C693        C698   1.394       .  A
C693        H700   1.082       .  S
C694        C695   1.395       .  A
C695        C696   1.384       .  A
C695        F702   1.358       .  S
C696        C697   1.404       .  A
C696        H701   1.084       .  S
C697        C698   1.396       .  A
C698        F699   1.357       .  S
C703        C704   1.401       .  A
C703        C708   1.402       .  A
C703        H710   1.083       .  S
C704        C705   1.418       .  A
C705        C706   1.395       .  A
C705        F712   1.358       .  S
C706        C707   1.395       .  A
C706        H711   1.084       .  S
C707        C708   1.409       .  A
C708        F709   1.353       .  S
C713        C714   1.397       .  A
C713        C718   1.390       .  A
C713        H720   1.084       .  S
C714        C715   1.405       .  A
C715        C716   1.396       .  A
C715        F722   1.355       .  S
C716        C717   1.400       .  A
C716        H721   1.084       .  S
C717        C718   1.409       .  A
C718        F719   1.359       .  S
C723        C724   1.407       .  A
C723        C728   1.398       .  A
C723        H730   1.084       .  S
C724        C725   1.399       .  A
C725        C726   1.390       .  A
C725        F732   1.357       .  S
C726        C727   1.403       .  A
C726        H731   1.084       .  S
C727        C728   1.400       .  A
C728        F729   1.357       .  S
C733        C734   1.388       .  A
C733        C738   1.391       .  A
C733        H740   1.084       .  S
C734        C735   1.422       .  A
C735        C736   1.401       .  A
C735        F742   1.356       .  S
C736        C737   1.394       .  A
C736        H741   1.083       .  S
C737        C738   1.421       .  A
C738        F739   1.349       .  S
C743        C744   1.408       .  A
C743        C748   1.395       .  A
C743        H750   1.084       .  S
C744        C745   1.411       .  A
C745        C746   1.415       .  A
C745        F752   1.357       .  S
C746        C747   1.408       .  A
C746        H751   1.080       .  S
C747        C748   1.404       .  A
C748        F749   1.357       .  S
C753        C754   1.396       .  A
C753        C758   1.398       .  A
C753        H760   1.083       .  S
C754        C755   1.410       .  A
C755        C756   1.382       .  A
C755        F762   1.357       .  S
C756        C757   1.390       .  A
C756        H761   1.084       .  S
C757        C758   1.413       .  A
C758        F759   1.358       .  S
C763        C764   1.420       .  A
C763        C768   1.401       .  A
C763        H770   1.081       .  S
C764        C765   1.396       .  A
C765        C766   1.401       .  A
C765        F772   1.357       .  S
C766        C767   1.415       .  A
C766        H771   1.068       .  S
C767        C768   1.394       .  A
C768        F769   1.357       .  S
C773        C774   1.394       .  A
C773        C778   1.389       .  A
C773        H780   1.084       .  S
C774        C775   1.412       .  A
C775        C776   1.392       .  A
C775        F782   1.347       .  S
C776        C777   1.389       .  A
C776        H781   1.084       .  S
C777        C778   1.413       .  A
C778        F779   1.358       .  S
C783        C784   1.404       .  A
C783        C788   1.412       .  A
C783        H790   1.083       .  S
C784        C785   1.410       .  A
C785        C786   1.391       .  A
C785        F792   1.358       .  S
C786        C787   1.400       .  A
C786        H791   1.084       .  S
C787        C788   1.410       .  A
C788        F789   1.356       .  S
C793        C794   1.391       .  A
C793        C798   1.397       .  A
C793        H800   1.083       .  S
C794        C795   1.420       .  A
C795        C796   1.396       .  A
C795        F802   1.353       .  S
C796        C797   1.391       .  A
C796        H801   1.083       .  S
C797        C798   1.423       .  A
C798        F799   1.356       .  S
C803        C804   1.398       .  A
C803        C808   1.396       .  A
C803        H810   1.083       .  S
C804        C805   1.405       .  A
C805        C806   1.390       .  A
C805        F812   1.358       .  S
C806        C807   1.397       .  A
C806        H811   1.084       .  S
C807        C808   1.408       .  A
C808        F809   1.358       .  S
C813        C814   1.396       .  A
C813        C818   1.386       .  A
C813        H820   1.084       .  S
C814        C815   1.403       .  A
C815        C816   1.394       .  A
C815        F822   1.357       .  S
C816        C817   1.400       .  A
C816        H821   1.083       .  S
C817        C818   1.402       .  A
C818        F819   1.358       .  S
C823        C824   1.403       .  A
C823        C828   1.405       .  A
C823        H830   1.083       .  S
C824        C825   1.417       .  A
C825        C826   1.395       .  A
C825        F832   1.358       .  S
C826        C827   1.396       .  A
C826        H831   1.084       .  S
C827        C828   1.410       .  A
C828        F829   1.355       .  S
C833        C834   1.407       .  A
C833        C838   1.411       .  A
C833        H840   1.083       .  S
C834        C835   1.403       .  A
C835        C836   1.390       .  A
C835        F842   1.358       .  S
C836        C837   1.404       .  A
C836        H841   1.084       .  S
C837        C838   1.409       .  A
C838        F839   1.357       .  S
C843        C844   1.387       .  A
C843        C848   1.383       .  A
C843        H850   1.084       .  S
C844        C845   1.424       .  A
C845        C846   1.387       .  A
C845        F852   1.356       .  S
C846        C847   1.387       .  A
C846        H851   1.084       .  S
C847        C848   1.425       .  A
C848        F849   1.358       .  S
C853        C854   1.400       .  A
C853        C858   1.394       .  A
C853        H860   1.084       .  S
C854        C855   1.410       .  A
C855        C856   1.410       .  A
C855        F862   1.356       .  S
C856        C857   1.407       .  A
C856        H861   1.083       .  S
C857        C858   1.411       .  A
C858        F859   1.358       .  S
C863        C864   1.415       .  A
C863        C868   1.384       .  A
C863        H870   1.084       .  S
C864        C865   1.387       .  A
C865        C866   1.386       .  A
C865        F872   1.358       .  S
C866        C867   1.417       .  A
C866        H871   1.076       .  S
C867        C868   1.393       .  A
C868        F869   1.358       .  S
C873        C874   1.411       .  A
C873        C878   1.386       .  A
C873        H880   1.081       .  S
C874        C875   1.393       .  A
C875        C876   1.390       .  A
C875        F882   1.358       .  S
C876        C877   1.415       .  A
C876        H881   1.081       .  S
C877        C878   1.396       .  A
C878        F879   1.358       .  S
C883        C884   1.407       .  A
C883        C888   1.388       .  A
C883        H890   1.084       .  S
C884        C885   1.407       .  A
C885        C886   1.412       .  A
C885        F892   1.357       .  S
C886        C887   1.410       .  A
C886        H891   1.083       .  S
C887        C888   1.400       .  A
C888        F889   1.358       .  S
C893        C894   1.396       .  A
C893        C898   1.390       .  A
C893        H900   1.084       .  S
C894        C895   1.407       .  A
C895        C896   1.396       .  A
C895        F902   1.358       .  S
C896        C897   1.400       .  A
C896        H901   1.084       .  S
C897        C898   1.407       .  A
C898        F899   1.357       .  S
C903        C904   1.392       .  A
C903        C908   1.396       .  A
C903        H910   1.083       .  S
C904        C905   1.422       .  A
C905        C906   1.399       .  A
C905        F912   1.356       .  S
C906        C907   1.393       .  A
C906        H911   1.083       .  S
C907        C908   1.419       .  A
C908        F909   1.353       .  S
C913        C914   1.392       .  A
C913        C918   1.398       .  A
C913        H920   1.083       .  S
C914        C915   1.421       .  A
C915        C916   1.397       .  A
C915        F922   1.353       .  S
C916        C917   1.391       .  A
C916        H921   1.083       .  S
C917        C918   1.423       .  A
C918        F919   1.355       .  S
C923        C924   1.394       .  A
C923        C928   1.385       .  A
C923        H930   1.084       .  S
C924        C925   1.409       .  A
C925        C926   1.396       .  A
C925        F932   1.354       .  S
C926        C927   1.396       .  A
C926        H931   1.084       .  S
C927        C928   1.406       .  A
C928        F929   1.358       .  S
C933        C934   1.401       .  A
C933        C938   1.389       .  A
C933        H940   1.084       .  S
C934        C935   1.412       .  A
C935        C936   1.414       .  A
C935        F942   1.357       .  S
C936        C937   1.409       .  A
C936        H941   1.083       .  S
C937        C938   1.408       .  A
C938        F939   1.359       .  S
C943        C944   1.408       .  A
C943        C948   1.395       .  A
C943        H950   1.084       .  S
C944        C945   1.399       .  A
C945        C946   1.398       .  A
C945        F952   1.357       .  S
C946        C947   1.410       .  A
C946        H951   1.084       .  S
C947        C948   1.399       .  A
C948        F949   1.358       .  S
C953        C954   1.404       .  A
C953        C958   1.391       .  A
C953        H960   1.084       .  S
C954        C955   1.398       .  A
C955        C956   1.395       .  A
C955        F962   1.358       .  S
C956        C957   1.408       .  A
C956        H961   1.084       .  S
C957        C958   1.399       .  A
C958        F959   1.358       .  S
C963        C964   1.413       .  A
C963        C968   1.411       .  A
C963        H970   1.082       .  S
C964        C965   1.396       .  A
C965        C966   1.392       .  A
C965        F972   1.358       .  S
C966        C967   1.415       .  A
C966        H971   1.083       .  S
C967        C968   1.404       .  A
C968        F969   1.357       .  S
C973        C974   1.398       .  A
C973        C978   1.395       .  A
C973        H980   1.084       .  S
C974        C975   1.404       .  A
C975        C976   1.385       .  A
C975        F982   1.358       .  S
C976        C977   1.395       .  A
C976        H981   1.084       .  S
C977        C978   1.406       .  A
C978        F979   1.356       .  S
C983        C984   1.389       .  A
C983        C988   1.394       .  A
C983        H990   1.084       .  S
C984        C985   1.423       .  A
C985        C986   1.396       .  A
C985        F992   1.354       .  S
C986        C987   1.390       .  A
C986        H991   1.083       .  S
C987        C988   1.423       .  A
C988        F989   1.354       .  S
C993        C994   1.403       .  A
C993        C998   1.398       .  A
C993       H1000   1.084       .  S
C994        C995   1.401       .  A
C995        C996   1.386       .  A
C995       F1002   1.356       .  S
C996        C997   1.398       .  A
C996       H1001   1.084       .  S
C997        C998   1.406       .  A
C998        F999   1.357       .  S
C1003      C1004   1.404       .  A
C1003      C1008   1.409       .  A
C1003      H1010   1.083       .  S
C1004      C1005   1.419       .  A
C1005      C1006   1.393       .  A
C1005      F1012   1.358       .  S
C1006      C1007   1.394       .  A
C1006      H1011   1.084       .  S
C1007      C1008   1.412       .  A
C1008      F1009   1.354       .  S
C1013      C1014   1.392       .  A
C1013      C1018   1.385       .  A
C1013      H1020   1.084       .  S
C1014      C1015   1.410       .  A
C1015      C1016   1.394       .  A
C1015      F1022   1.351       .  S
C1016      C1017   1.392       .  A
C1016      H1021   1.084       .  S
C1017      C1018   1.411       .  A
C1018      F1019   1.358       .  S
C1023      C1024   1.402       .  A
C1023      C1028   1.410       .  A
C1023      H1030   1.083       .  S
C1024      C1025   1.417       .  A
C1025      C1026   1.391       .  A
C1025      F1032   1.357       .  S
C1026      C1027   1.394       .  A
C1026      H1031   1.084       .  S
C1027      C1028   1.412       .  A
C1028      F1029   1.354       .  S
C1033      C1034   1.380       .  A
C1033      C1038   1.383       .  A
C1033      H1040   1.084       .  S
C1034      C1035   1.417       .  A
C1035      C1036   1.381       .  A
C1035      F1042   1.358       .  S
C1036      C1037   1.388       .  A
C1036      H1041   1.084       .  S
C1037      C1038   1.423       .  A
C1038      F1039   1.350       .  S
C1043      C1044   1.411       .  A
C1043      C1048   1.418       .  A
C1043      H1050   1.083       .  S
C1044      C1045   1.406       .  A
C1045      C1046   1.389       .  A
C1045      F1052   1.356       .  S
C1046      C1047   1.402       .  A
C1046      H1051   1.084       .  S
C1047      C1048   1.412       .  A
C1048      F1049   1.356       .  S
C1053      C1054   1.405       .  A
C1053      C1058   1.398       .  A
C1053      H1060   1.084       .  S
C1054      C1055   1.402       .  A
C1055      C1056   1.391       .  A
C1055      F1062   1.355       .  S
C1056      C1057   1.400       .  A
C1056      H1061   1.085       .  S
C1057      C1058   1.405       .  A
C1058      F1059   1.358       .  S
C1063      C1064   1.408       .  A
C1063      C1068   1.407       .  A
C1063      H1070   1.083       .  S
C1064      C1065   1.399       .  A
C1065      C1066   1.392       .  A
C1065      F1072   1.358       .  S
C1066      C1067   1.409       .  A
C1066      H1071   1.084       .  S
C1067      C1068   1.405       .  A
C1068      F1069   1.357       .  S
C1073      C1074   1.411       .  A
C1073      C1078   1.391       .  A
C1073      H1080   1.084       .  S
C1074      C1075   1.409       .  A
C1075      C1076   1.414       .  A
C1075      F1082   1.357       .  S
C1076      C1077   1.412       .  A
C1076      H1081   1.083       .  S
C1077      C1078   1.398       .  A
C1078      F1079   1.358       .  S
C1083      C1084   1.403       .  A
C1083      C1088   1.394       .  A
C1083      H1090   1.084       .  S
C1084      C1085   1.406       .  A
C1085      C1086   1.398       .  A
C1085      F1092   1.358       .  S
C1086      C1087   1.405       .  A
C1086      H1091   1.084       .  S
C1087      C1088   1.403       .  A
C1088      F1089   1.357       .  S
C1093      C1094   1.392       .  A
C1093      C1098   1.401       .  A
C1093      H1100   1.083       .  S
C1094      C1095   1.423       .  A
C1095      C1096   1.399       .  A
C1095      F1102   1.352       .  S
C1096      C1097   1.391       .  A
C1096      H1101   1.083       .  S
C1097      C1098   1.424       .  A
C1098      F1099   1.355       .  S
C1103      C1104   1.406       .  A
C1103      C1108   1.387       .  A
C1103      H1110   1.084       .  S
C1104      C1105   1.395       .  A
C1105      C1106   1.396       .  A
C1105      F1112   1.357       .  S
C1106      C1107   1.412       .  A
C1106      H1111   1.084       .  S
C1107      C1108   1.396       .  A
C1108      F1109   1.358       .  S
C1113      C1114   1.398       .  A
C1113      C1118   1.399       .  A
C1113      H1120   1.083       .  S
C1114      C1115   1.409       .  A
C1115      C1116   1.389       .  A
C1115      F1122   1.358       .  S
C1116      C1117   1.394       .  A
C1116      H1121   1.084       .  S
C1117      C1118   1.412       .  A
C1118      F1119   1.358       .  S
C1123      C1124   1.396       .  A
C1123      C1128   1.389       .  A
C1123      H1130   1.084       .  S
C1124      C1125   1.405       .  A
C1125      C1126   1.396       .  A
C1125      F1132   1.355       .  S
C1126      C1127   1.400       .  A
C1126      H1131   1.084       .  S
C1127      C1128   1.410       .  A
C1128      F1129   1.359       .  S
C1133      C1134   1.408       .  A
C1133      C1138   1.415       .  A
C1133      H1140   1.081       .  S
C1134      C1135   1.405       .  A
C1135      C1136   1.389       .  A
C1135      F1142   1.358       .  S
C1136      C1137   1.405       .  A
C1136      H1141   1.084       .  S
C1137      C1138   1.411       .  A
C1138      F1139   1.357       .  S
C1143      C1144   1.391       .  A
C1143      C1148   1.397       .  A
C1143      H1150   1.084       .  S
C1144      C1145   1.422       .  A
C1145      C1146   1.395       .  A
C1145      F1152   1.354       .  S
C1146      C1147   1.390       .  A
C1146      H1151   1.084       .  S
C1147      C1148   1.422       .  A
C1148      F1149   1.354       .  S
