geometry optimzed in LAMMPS
_audit_creation_date              2020-11-30 
_audit_creation_method            'lammps2cif' 
_symmetry_space_group_name_H-M    'P1' 
_symmetry_Int_Tables_number       1 
_symmetry_cell_setting            triclinic 
loop_ 
_symmetry_equiv_pos_as_xyz 
  x,y,z 
_cell_length_a                    48.56198506 
_cell_length_b                    48.422414580658504 
_cell_length_c                    47.039774157225594 
_cell_angle_alpha                 90.27862910631849 
_cell_angle_beta                  89.81238389228452 
_cell_angle_gamma                 120.75504552682649 
loop_ 
_atom_site_label 
_atom_site_type_symbol 
_atom_site_fract_x 
_atom_site_fract_y 
_atom_site_fract_z 
_atom_site_charge 
C1          C  0.02954073  0.06322591  0.64249825     0.80700
N2          N  0.00954227  0.07107379  0.65532404    -0.77600
C3          C  0.01205461  0.07864562  0.68318494     0.83200
N4          N  0.03595107  0.07884343  0.69840172    -0.77500
C5          C  0.05657069  0.07096546  0.68602886     0.83300
N6          N  0.05301884  0.06296308  0.65787503    -0.79200
C7          C  0.02388951  0.38253329  0.63987124     0.80700
N8          N  0.05192944  0.39988665  0.65432465    -0.77600
C9          C  0.05616038  0.39077189  0.68053000     0.83200
N10         N  0.03163256  0.36366029  0.69211647    -0.77500
C11         C  0.00339852  0.34591414  0.67828581     0.83300
N12         N  0.99985881  0.35567632  0.65226848    -0.79200
C13         C  0.45101042  0.45581148  0.84594567     0.80700
N14         N  0.48330595  0.46878152  0.84638468    -0.77600
C15         C  0.99614965  0.44979169  0.84387391     0.83200
N16         N  0.47684459  0.41775790  0.84073659    -0.77500
C17         C  0.44474997  0.40458757  0.84080323     0.83300
N18         N  0.43186547  0.42353262  0.84275927    -0.79200
O19         O  0.29594286  0.03839079  0.75632771    -0.84800
O20         O  0.34395285  0.10152802  0.76027163    -0.81900
C21         C  0.36582481  0.12516814  0.77367962     0.98600
O22         O  0.38752342  0.12315266  0.78673466    -0.81900
O23         O  0.36646075  0.08763096  0.83566190    -0.84600
C24         C  0.35302556  0.06381894  0.85198599     1.03200
O25         O  0.33866316  0.03570406  0.84177386    -0.77300
O26         O  0.29242284  0.02912284  0.80238013    -0.77500
C27         C  0.28062370  0.03237273  0.77962708     1.03100
O28         O  0.34303092  0.02301935  0.73427444    -0.84800
O29         O  0.38901480  0.08727596  0.73480722    -0.81900
C30         C  0.41417048  0.08918118  0.74453721     0.98600
O31         O  0.41660788  0.08558667  0.77062782    -0.81900
O32         O  0.39756466  0.05286000  0.81991277    -0.84500
C33         C  0.38626914  0.02322568  0.81506206     1.03100
O34         O  0.35983138  0.00651454  0.80241219    -0.77300
O35         O  0.30904923  0.49195263  0.76633137    -0.77500
C36         C  0.32351791  0.99513130  0.74308009     1.03100
Cr37       Cr  0.34373269  0.06197992  0.74926974     1.93700
Cr38       Cr  0.38906663  0.08510206  0.80159112     1.93200
Cr39       Cr  0.32692678  0.01890238  0.80177849     1.39100
O40         O  0.35333216  0.05570093  0.78430321    -1.22600
O41         O  0.35694738  0.16446915  0.75270242    -0.84800
O42         O  0.29654833  0.14958282  0.76229888    -0.81900
C43         C  0.27424699  0.14640287  0.77807876     0.98600
O44         O  0.27676978  0.16967720  0.79256179    -0.81900
O45         O  0.31801429  0.18314331  0.83787168    -0.84600
C46         C  0.34348176  0.19485960  0.85216927     1.03200
O47         O  0.37007909  0.21098941  0.83949137    -0.77300
O48         O  0.37330241  0.17171472  0.79730664    -0.77500
C49         C  0.36549507  0.15538525  0.77461101     1.03100
O50         O  0.37061968  0.22810493  0.73342298    -0.84800
O51         O  0.30892749  0.21081673  0.73974609    -0.81900
C52         C  0.30949647  0.23452816  0.75189887     0.98600
O53         O  0.31326122  0.23776858  0.77836012    -0.81900
O54         O  0.35040123  0.25053423  0.82429886    -0.84500
C55         C  0.37803394  0.27036742  0.81480417     1.03100
O56         O  0.39335501  0.26129344  0.79951945    -0.77300
O57         O  0.40538930  0.22614174  0.76045864    -0.77500
C58         C  0.39927106  0.23707480  0.73855986     1.03100
Cr59       Cr  0.33400037  0.18938570  0.74974764     1.93700
Cr60       Cr  0.31642266  0.20949676  0.80640933     1.93200
Cr61       Cr  0.38250698  0.21638689  0.79821772     1.39100
O62         O  0.34387158  0.20459706  0.78489119    -1.22600
O63         O  0.24537858  0.09260237  0.76472669    -0.84800
O64         O  0.23719863  0.03342231  0.75746968    -0.81900
C65         C  0.24866751  0.02889161  0.78010857     0.98600
O66         O  0.23282020  0.02116555  0.80302586    -0.81900
O67         O  0.18964695  0.01857059  0.84421207    -0.84600
C68         C  0.20305874  0.04600838  0.85570946     1.03200
O69         O  0.21349192  0.07034296  0.84001749    -0.77300
O70         O  0.22144610  0.10925845  0.79399070    -0.77500
C71         C  0.24535720  0.11453780  0.77910713     1.03100
O72         O  0.18256598  0.07225062  0.74213850    -0.84800
O73         O  0.17175559  0.01186422  0.73782379    -0.81900
C74         C  0.16604614  0.98444644  0.74472077     0.98600
O75         O  0.17957129  0.48140147  0.76636032    -0.81900
O76         O  0.14017860  0.98893498  0.80390120    -0.84500
C77         C  0.12878683  0.00272509  0.81839249     1.03100
O78         O  0.14619590  0.03132787  0.82717611    -0.77300
O79         O  0.15479492  0.06663982  0.78037654    -0.77500
C80         C  0.15851232  0.07107374  0.75400513     1.03100
Cr81       Cr  0.20815075  0.05176110  0.75315732     1.93700
Cr82       Cr  0.18644592  0.00535503  0.80324729     1.93200
Cr83       Cr  0.18496700  0.06767883  0.80875560     1.39100
O84         O  0.19339760  0.04200072  0.78833853    -1.22600
C85         C  0.34551106  0.37501872  0.64208132     0.80700
N86         N  0.33762793  0.39577973  0.65445053    -0.77600
C87         C  0.32326244  0.38979029  0.68058209     0.83200
N88         N  0.31689333  0.36246405  0.69405723    -0.77500
C89         C  0.32446806  0.34148908  0.68259143     0.83300
N90         N  0.33891886  0.34793913  0.65665047    -0.79200
C91         C  0.20571367  0.40331502  0.31060717     0.80700
N92         N  0.18493735  0.40947166  0.32467086    -0.77600
C93         C  0.18977260  0.41972320  0.35216292     0.83200
N94         N  0.21609698  0.42386738  0.36606695    -0.77500
C95         C  0.23740241  0.41825004  0.35230943     0.83300
N96         N  0.23203871  0.40797430  0.32487919    -0.79200
C97         C  0.52194838  0.22803802  0.30853738     0.80700
N98         N  0.51647075  0.24909038  0.32316188    -0.77600
C99         C  0.50682966  0.24379129  0.35077435     0.83200
N100        N  0.50259964  0.21706635  0.36419910    -0.77500
C101        C  0.50732358  0.19546042  0.34977949     0.83300
N102        N  0.51710235  0.20136008  0.32230830    -0.79200
C103        C  0.13183274  0.30881409  0.51740762     0.80700
N104        N  0.16378094  0.32038245  0.51778572    -0.77600
C105        C  0.17551471  0.30031392  0.51750737     0.83200
N106        N  0.15468940  0.26816817  0.51681138    -0.77500
C107        C  0.12266486  0.25624043  0.51613524     0.83300
N108        N  0.11137492  0.27664363  0.51623614    -0.79200
O109        O  0.48546734  0.41126649  0.43269458    -0.84800
O110        O  0.04501459  0.46025635  0.42334001    -0.81900
C111        C  0.04972508  0.47641188  0.44599219     0.98600
O112        O  0.05785862  0.46864443  0.46853940    -0.81900
O113        O  0.05325830  0.42648082  0.51043594    -0.84600
C114        C  0.02483184  0.41165260  0.52013258     1.03200
O115        O  0.00178740  0.39647396  0.50324787    -0.77300
O116        O  0.46652256  0.36577573  0.45552318    -0.77500
C117        C  0.46263413  0.38736508  0.44452879     1.03100
O118        O  0.50057282  0.36525479  0.40828198    -0.84800
O119        O  0.06156103  0.41343182  0.40374361    -0.81900
C120        C  0.09002645  0.43219170  0.41090174     0.98600
O121        O  0.09554948  0.44958027  0.43298205    -0.81900
O122        O  0.08462531  0.40493376  0.47316906    -0.84500
C123        C  0.07079122  0.38072633  0.48896932     1.03100
O124        O  0.04133656  0.36880029  0.49463088    -0.77300
O125        O  0.51143306  0.34404069  0.44434218    -0.77500
C126        C  0.50557193  0.34391760  0.41830807     1.03100
Cr127      Cr  0.02391276  0.41227958  0.41944555     1.93700
Cr128      Cr  0.07018605  0.43570814  0.47001573     1.93200
Cr129      Cr  0.50696365  0.37123853  0.47297682     1.39100
O130        O  0.03363916  0.40646106  0.45417934    -1.22600
O131        O  0.02273260  0.50246586  0.43117067    -0.84800
O132        O  0.47102499  0.50984596  0.42233306    -0.81900
C133        C  0.45364566  0.50052026  0.44469231     0.98600
O134        O  0.46151018  0.01814306  0.46640783    -0.81900
O135        O  0.00080486  0.05922895  0.50718640    -0.84600
C136        C  0.01413792  0.04664028  0.52036954     1.03200
O137        O  0.03048020  0.03745246  0.50678088    -0.77300
O138        O  0.06224608  0.02820035  0.46160316    -0.77500
C139        C  0.04485447  0.50394091  0.44614891     1.03100
O140        O  0.06653681  0.06539585  0.40861276    -0.84800
O141        O  0.51768415  0.07528306  0.40142827    -0.81900
C142        C  0.49822584  0.08415695  0.40721017     0.98600
O143        O  0.48019215  0.07186289  0.42852486    -0.81900
O144        O  0.02535510  0.11041559  0.46831546    -0.84500
C145        C  0.04937998  0.12176563  0.48455951     1.03100
O146        O  0.06019336  0.10415068  0.49247729    -0.77300
O147        O  0.08796106  0.09476567  0.44671842    -0.77500
C148        C  0.08921845  0.09015867  0.42055662     1.03100
Cr149      Cr  0.01949146  0.03937070  0.41864492     1.93700
Cr150      Cr  0.49414613  0.06395640  0.46636651     1.93200
Cr151      Cr  0.05738762  0.06499588  0.47499871     1.39100
O152        O  0.02369944  0.05566917  0.45340663    -1.22600
O153        O  0.41257198  0.45221279  0.42361571    -0.84800
O154        O  0.43000379  0.40765990  0.43255596    -0.81900
C155        C  0.43165461  0.38541361  0.44470526     0.98600
O156        O  0.40738660  0.36211153  0.45646445    -0.81900
O157        O  0.39299386  0.38303610  0.50663475    -0.84600
C158        C  0.38405698  0.39804345  0.52266960     1.03200
O159        O  0.37196557  0.41333698  0.51192681    -0.77300
O160        O  0.41007207  0.45787073  0.46960802    -0.77500
C161        C  0.42399990  0.46869129  0.44600778     1.03100
O162        O  0.35026565  0.40021600  0.40554398    -0.84800
O163        O  0.37285348  0.35883945  0.40663910    -0.81900
C164        C  0.34759579  0.33430301  0.41504443     0.98600
O165        O  0.33977355  0.33204639  0.44083867    -0.81900
O166        O  0.32702100  0.35066878  0.49130967    -0.84500
C167        C  0.30910008  0.36214701  0.48735321     1.03100
O168        O  0.31912501  0.38876143  0.47510203    -0.77300
O169        O  0.35277066  0.43584036  0.43573402    -0.77500
C170        C  0.34049186  0.41841083  0.41390265     1.03100
Cr171      Cr  0.39012103  0.40409376  0.41988694     1.93700
Cr172      Cr  0.36760077  0.35978537  0.47225803     1.93200
Cr173      Cr  0.36471046  0.42221530  0.47179704     1.39100
O174        O  0.37436375  0.39532574  0.45500767    -1.22600
C175        C  0.20765132  0.21794796  0.30761399     0.80700
N176        N  0.23623546  0.23962444  0.31963858    -0.77600
C177        C  0.24286647  0.23626373  0.34715426     0.83200
N178        N  0.22016719  0.21087617  0.36228709    -0.77500
C179        C  0.19185240  0.18868370  0.35042656     0.83300
N180        N  0.18567318  0.19235062  0.32304136    -0.79200
C181        C  0.37159006  0.05686922  0.97309783     0.80700
N182        N  0.34934659  0.02953947  0.98652558    -0.77600
C183        C  0.35310489  0.02444016  0.01427423     0.83200
N184        N  0.37911800  0.04685540  0.02880592    -0.77500
C185        C  0.40168853  0.07397361  0.01566281     0.83300
N186        N  0.39766892  0.07912721  0.98799622    -0.79200
C187        C  0.35926863  0.22578912  0.97379950     0.80700
N188        N  0.33851699  0.23198881  0.98826969    -0.77600
C189        C  0.34467847  0.24323589  0.01557051     0.83200
N190        N  0.37204469  0.24855845  0.02833939    -0.77500
C191        C  0.39300367  0.24258689  0.01460290     0.83300
N192        N  0.38627724  0.23123489  0.98750461    -0.79200
C193        C  0.28645880  0.12894760  0.18521752     0.80700
N194        N  0.31842324  0.14967555  0.18775857    -0.77600
C195        C  0.33913064  0.13877063  0.18954517     0.83200
N196        N  0.32726609  0.10662160  0.18896666    -0.77500
C197        C  0.29534524  0.08565015  0.18684101     0.83300
N198        N  0.27506938  0.09696677  0.18464668    -0.79200
O199        O  0.08055592  0.28701975  0.08886232    -0.84800
O200        O  0.09115914  0.23831987  0.09857888    -0.81900
C201        C  0.09026421  0.21567377  0.11225046     0.98600
O202        O  0.06538694  0.19611514  0.12609106    -0.81900
O203        O  0.05814434  0.22835071  0.17188461    -0.84600
C204        C  0.04925534  0.24406887  0.18689547     1.03200
O205        O  0.03471519  0.25649930  0.17522803    -0.77300
O206        O  0.07327829  0.29694134  0.13307609    -0.77500
C207        C  0.09062180  0.30412461  0.11127300     1.03100
O208        O  0.01580988  0.23843039  0.06896756    -0.84800
O209        O  0.02926968  0.19164186  0.07619902    -0.81900
C210        C  0.00309034  0.17017932  0.08697770     0.98600
O211        O  0.99768390  0.17079178  0.11310712    -0.81900
O212        O  0.49058996  0.19743976  0.16155150    -0.84500
C213        C  0.47238917  0.20799795  0.15490718     1.03100
O214        O  0.48223097  0.23066038  0.13733544    -0.77300
O215        O  0.01755435  0.27521930  0.09642541    -0.77500
C216        C  0.00576662  0.25698592  0.07493966     1.03100
Cr217      Cr  0.05302137  0.23879572  0.08576129     1.93700
Cr218      Cr  0.02881983  0.20059372  0.14142792     1.93200
Cr219      Cr  0.02795253  0.26294561  0.13425435     1.39100
O220        O  0.03702075  0.23423649  0.12056111    -1.22600
O221        O  0.20536250  0.34382936  0.09036277    -0.84800
O222        O  0.14482439  0.33271948  0.09751858    -0.81900
C223        C  0.12306937  0.33244282  0.11231320     0.98600
O224        O  0.12888713  0.35561632  0.12871835    -0.81900
O225        O  0.16890420  0.36423220  0.17403789    -0.84600
C226        C  0.19363810  0.37445505  0.18911922     1.03200
O227        O  0.22084783  0.38963986  0.17741316    -0.77300
O228        O  0.22132424  0.34995058  0.13503493    -0.77500
C229        C  0.21203533  0.33339684  0.11258707     1.03100
O230        O  0.22374946  0.40969380  0.07180667    -0.84800
O231        O  0.16298931  0.39551201  0.07749271    -0.81900
C232        C  0.16279890  0.41856572  0.09011220     0.98600
O233        O  0.16857157  0.42273271  0.11630911    -0.81900
O234        O  0.20546975  0.43244097  0.16259479    -0.84500
C235        C  0.23430577  0.45132168  0.15511270     1.03100
O236        O  0.24790036  0.44122040  0.13878389    -0.77300
O237        O  0.25727151  0.40504877  0.09881606    -0.77500
C238        C  0.25205263  0.41829141  0.07814522     1.03100
Cr239      Cr  0.18536421  0.37152284  0.08699947     1.93700
Cr240      Cr  0.16980549  0.39293165  0.14371322     1.93200
Cr241      Cr  0.23377025  0.39540719  0.13628400     1.39100
O242        O  0.19582986  0.38616484  0.12234004    -1.22600
O243        O  0.13629790  0.22093039  0.08950513    -0.84800
O244        O  0.18865574  0.28062722  0.09546546    -0.81900
C245        C  0.20848990  0.30137991  0.11237694     0.98600
O246        O  0.22454509  0.29498893  0.12950511    -0.81900
O247        O  0.19661200  0.25212558  0.17508859    -0.84600
C248        C  0.18094782  0.22561003  0.18799005     1.03200
O249        O  0.16641350  0.20014747  0.17368699    -0.77300
O250        O  0.12590553  0.20204269  0.13336915    -0.77500
C251        C  0.11882074  0.21247062  0.11173781     1.03100
O252        O  0.18044884  0.20031800  0.06784750    -0.84800
O253        O  0.22984324  0.25932837  0.07258493    -0.81900
C254        C  0.25296709  0.25938457  0.08486010     0.98600
O255        O  0.25308767  0.25748354  0.11151273    -0.81900
O256        O  0.22695112  0.21818722  0.15602576    -0.84500
C257        C  0.21547192  0.18914013  0.14870065     1.03100
O258        O  0.19026317  0.17495553  0.13368929    -0.77300
O259        O  0.14271936  0.16707697  0.09532880    -0.77500
C260        C  0.15955827  0.17202499  0.07347164     1.03100
Cr261      Cr  0.18388409  0.23923124  0.08444547     1.93700
Cr262      Cr  0.22233271  0.25397268  0.14098686     1.93200
Cr263      Cr  0.15875122  0.18956683  0.13273572     1.39100
O264        O  0.18834282  0.22823374  0.11959969    -1.22600
C265        C  0.17381675  0.04376830  0.97719091     0.80700
N266        N  0.16789852  0.01826754  0.99370779    -0.77600
C267        C  0.15789321  0.01592810  0.02116346     0.83200
N268        N  0.15351844  0.03941796  0.03204149    -0.77500
C269        C  0.15951515  0.06511353  0.01614851     0.83300
N270        N  0.16966943  0.06702345  0.98897636    -0.79200
C271        C  0.15643371  0.14476298  0.05545773    -0.04800
C272        C  0.13112991  0.11263511  0.05992481    -0.01900
C273        C  0.13170553  0.08668472  0.04659852     0.03000
C274        C  0.15772304  0.09230631  0.02901451    -0.04800
C275        C  0.18242857  0.12421084  0.02385528    -0.01900
C276        C  0.18088997  0.15018910  0.03557406     0.03000
C277        C  0.10392935  0.10584692  0.07774832     0.37700
C278        C  0.21099159  0.13060102  0.00822255     0.37700
C279        C  0.20479860  0.18231500  0.02653556     0.36100
C280        C  0.10535087  0.05411202  0.05105186     0.36100
N281        N  0.22369276  0.20764653  0.01856459    -0.38700
N282        N  0.08435243  0.02813831  0.05468438    -0.38700
N283        N  0.23390019  0.13572913  0.99609814    -0.38200
N284        N  0.08215428  0.10028475  0.09189508    -0.38200
C285        C  0.15490925  0.48965589  0.03996010    -0.04800
C286        C  0.16508747  0.49615057  0.06866686    -0.01900
C287        C  0.16581771  0.47250791  0.08550889     0.03000
C288        C  0.15695383  0.44185372  0.07381384    -0.04800
C289        C  0.14409063  0.43459149  0.04582865    -0.01900
C290        C  0.14299409  0.45826189  0.02918362     0.03000
C291        C  0.17587097  0.02760304  0.08106784     0.37700
C292        C  0.13126128  0.40260481  0.03395190     0.37700
C293        C  0.12850693  0.44981714  0.00113825     0.36100
C294        C  0.17688641  0.48091549  0.11470094     0.36100
N295        N  0.11683769  0.44302730  0.97884507    -0.38700
N296        N  0.18578710  0.48810338  0.13784666    -0.38700
N297        N  0.12099069  0.37713334  0.02436193    -0.38200
N298        N  0.18401375  0.05253916  0.09098420    -0.38200
C299        C  0.26529340  0.14147028  0.17779408    -0.04800
C300        C  0.26638927  0.16646104  0.19398151    -0.01900
C301        C  0.25034047  0.18204812  0.18457778     0.03000
C302        C  0.23171217  0.17183719  0.15912926    -0.04800
C303        C  0.22988531  0.14585289  0.14347678    -0.01900
C304        C  0.24667025  0.13087844  0.15272926     0.03000
C305        C  0.28405714  0.17609053  0.22059518     0.37700
C306        C  0.21275376  0.13572234  0.11670473     0.37700
C307        C  0.24632555  0.10576009  0.13543751     0.36100
C308        C  0.25442995  0.20935133  0.20104586     0.36100
N309        N  0.24644244  0.08576588  0.12195368    -0.38700
N310        N  0.25852138  0.23142139  0.21416897    -0.38700
N311        N  0.19933179  0.12741471  0.09524782    -0.38200
N312        N  0.29803021  0.18366810  0.24183446    -0.38200
C313        C  0.25224203  0.48529506  0.16600344    -0.04800
C314        C  0.28286367  0.00806967  0.15472545    -0.01900
C315        C  0.29761473  0.04075452  0.16233979     0.03000
C316        C  0.28283648  0.05102329  0.18221866    -0.04800
C317        C  0.25421417  0.02826035  0.19562302    -0.01900
C318        C  0.23877975  0.49571334  0.18750353     0.03000
C319        C  0.29981627  0.49869593  0.13508254     0.37700
C320        C  0.24052746  0.03839965  0.21801494     0.37700
C321        C  0.20890646  0.47361761  0.20163689     0.36100
C322        C  0.32729418  0.06395809  0.14837053     0.36100
N323        N  0.18503017  0.45680164  0.21320044    -0.38700
N324        N  0.35091834  0.08236635  0.13722401    -0.38700
N325        N  0.22961957  0.04643796  0.23583457    -0.38200
N326        N  0.31393236  0.49174062  0.11966784    -0.38200
C327        C  0.37438619  0.16107313  0.18620233    -0.04800
C328        C  0.39609971  0.15266535  0.19741166    -0.01900
C329        C  0.42840947  0.16893610  0.18852968     0.03000
C330        C  0.43954297  0.19386360  0.16794435    -0.04800
C331        C  0.41861677  0.20491351  0.15977291    -0.01900
C332        C  0.38640461  0.18866597  0.16878144     0.03000
C333        C  0.38526467  0.12704667  0.21821403     0.37700
C334        C  0.42940797  0.23278719  0.14162032     0.37700
C335        C  0.36564920  0.20004372  0.15876193     0.36100
C336        C  0.44974190  0.15959046  0.20104565     0.36100
N337        N  0.34937047  0.20939701  0.15080093    -0.38700
N338        N  0.46644105  0.15192109  0.21128536    -0.38700
N339        N  0.43746187  0.25491901  0.12719585    -0.38200
N340        N  0.37672409  0.10656547  0.23467679    -0.38200
C341        C  0.32107679  0.24775007  0.03265649    -0.04800
C342        C  0.30589624  0.26373188  0.02157676    -0.01900
C343        C  0.28540177  0.26958518  0.03897848     0.03000
C344        C  0.27913433  0.25890139  0.06765111    -0.04800
C345        C  0.29556322  0.24400785  0.07881955    -0.01900
C346        C  0.31521851  0.23750554  0.06128440     0.03000
C347        C  0.31137488  0.27437996  0.99225516     0.37700
C348        C  0.29312885  0.23538686  0.10859386     0.37700
C349        C  0.32819488  0.21860714  0.07267065     0.36100
C350        C  0.27164635  0.28758125  0.02739821     0.36100
N351        N  0.33843488  0.20348739  0.08168462    -0.38700
N352        N  0.26083091  0.30208274  0.01815112    -0.38700
N353        N  0.29244007  0.22900760  0.13234624    -0.38200
N354        N  0.31544973  0.28267251  0.96879598    -0.38200
C355        C  0.42248730  0.24723347  0.02945361    -0.04800
C356        C  0.43308069  0.22529001  0.02486717    -0.01900
C357        C  0.46196250  0.23061798  0.03705604     0.03000
C358        C  0.47897430  0.25576736  0.05733840    -0.04800
C359        C  0.46809041  0.27765180  0.06208169    -0.01900
C360        C  0.44038413  0.27358508  0.04808320     0.03000
C361        C  0.41318654  0.19569134  0.00911804     0.37700
C362        C  0.48561065  0.30509542  0.08083175     0.37700
C363        C  0.43045146  0.29684034  0.05303475     0.36100
C364        C  0.47408952  0.21026087  0.02748152     0.36100
N365        N  0.42247445  0.31530765  0.05716992    -0.38700
N366        N  0.48365583  0.19421193  0.01911481    -0.38700
N367        N  0.49940494  0.32701649  0.09579980    -0.38200
N368        N  0.39730693  0.17193997  0.99684079    -0.38200
C369        C  0.32714655  0.49668620  0.02977566    -0.04800
C370        C  0.32824006  0.46841727  0.03403653    -0.01900
C371        C  0.30392829  0.44262649  0.04994240     0.03000
C372        C  0.27865970  0.44524587  0.06201039    -0.04800
C373        C  0.27824615  0.47405737  0.05821671    -0.01900
C374        C  0.30203580  0.49936223  0.04184399     0.03000
C375        C  0.35432557  0.46590182  0.02184948     0.37700
C376        C  0.25459517  0.47877177  0.07277579     0.37700
C377        C  0.30086374  0.52845136  0.03771824     0.36100
C378        C  0.30449505  0.41318555  0.05323341     0.36100
N379        N  0.29969596  0.55149383  0.03437731    -0.38700
N380        N  0.30490453  0.38963889  0.05578823    -0.38700
N381        N  0.23634603  0.48317029  0.08474122    -0.38200
N382        N  0.37522402  0.46405793  0.01206070    -0.38200
C383        C  0.47752755  0.14517229  0.06854887    -0.04800
C384        C  0.44657895  0.14135267  0.06886716    -0.01900
C385        C  0.42228127  0.11872624  0.05089566     0.03000
C386        C  0.42837107  0.09933786  0.03264061    -0.04800
C387        C  0.45927620  0.10334446  0.03179239    -0.01900
C388        C  0.48389999  0.12637596  0.04956566     0.03000
C389        C  0.43990363  0.16205496  0.08624638     0.37700
C390        C  0.46554072  0.08342264  0.01293110     0.37700
C391        C  0.01552016  0.13019939  0.04877660     0.36100
C392        C  0.39108631  0.11602912  0.05060557     0.36100
N393        N  0.04078307  0.13330438  0.04815561    -0.38700
N394        N  0.36638299  0.11420632  0.05031674    -0.38700
N395        N  0.47050001  0.06747864  0.99787764    -0.38200
N396        N  0.43370241  0.17837238  0.09941740    -0.38200
C397        C  0.20068599  0.22078424  0.27730392    -0.04800
C398        C  0.19550253  0.19613279  0.25827553    -0.01900
C399        C  0.18499997  0.19578637  0.23037255     0.03000
C400        C  0.18386385  0.22268391  0.21957016    -0.04800
C401        C  0.18867904  0.24730185  0.23881312    -0.01900
C402        C  0.19660571  0.24612697  0.26767446     0.03000
C403        C  0.20358745  0.17229063  0.26660434     0.37700
C404        C  0.18263226  0.27217906  0.22950713     0.37700
C405        C  0.19985978  0.27058254  0.28754149     0.36100
C406        C  0.17569122  0.16729196  0.21322765     0.36100
N407        N  0.20232486  0.29010252  0.30336094    -0.38700
N408        N  0.16785532  0.14414365  0.20011651    -0.38700
N409        N  0.17693602  0.29144216  0.22201658    -0.38200
N410        N  0.21095839  0.15379423  0.27249005    -0.38200
C411        C  0.27381142  0.26074141  0.36150594    -0.04800
C412        C  0.28532384  0.25216269  0.38576987    -0.01900
C413        C  0.31101336  0.27596070  0.40211303     0.03000
C414        C  0.32610417  0.30860980  0.39442643    -0.04800
C415        C  0.31793506  0.31667862  0.36815331    -0.01900
C416        C  0.29158894  0.29319540  0.35215336     0.03000
C417        C  0.27128943  0.21880084  0.39412105     0.37700
C418        C  0.33577617  0.34945894  0.35774470     0.37700
C419        C  0.28251528  0.30343301  0.32671385     0.36100
C420        C  0.32252889  0.26674795  0.42666037     0.36100
N421        N  0.27588503  0.31219663  0.30643463    -0.38700
N422        N  0.33179284  0.25949525  0.44621973    -0.38700
N423        N  0.34989833  0.37533371  0.34884987    -0.38200
N424        N  0.26022240  0.19227516  0.40098514    -0.38200
C425        C  0.16651646  0.16298363  0.36851674    -0.04800
C426        C  0.15649947  0.17177592  0.39333178    -0.01900
C427        C  0.13258849  0.14809457  0.41092185     0.03000
C428        C  0.11735441  0.11492854  0.40358206    -0.04800
C429        C  0.12825375  0.10615791  0.37909967    -0.01900
C430        C  0.15251090  0.13003551  0.36162035     0.03000
C431        C  0.16997968  0.20560332  0.40026963     0.37700
C432        C  0.11552867  0.07247979  0.37241448     0.37700
C433        C  0.16350696  0.12031588  0.33700949     0.36100
C434        C  0.12410541  0.15878109  0.43648684     0.36100
N435        N  0.17171081  0.11151567  0.31765081    -0.38700
N436        N  0.11884340  0.16864452  0.45689716    -0.38700
N437        N  0.10550067  0.04560599  0.36721841    -0.38200
N438        N  0.18072826  0.23255383  0.40561924    -0.38200
C439        C  0.10080580  0.22167517  0.51059630    -0.04800
C440        C  0.07949370  0.21175408  0.48736814    -0.01900
C441        C  0.06122199  0.17902516  0.47996625     0.03000
C442        C  0.06508736  0.15581494  0.49496070    -0.04800
C443        C  0.08582093  0.16602736  0.51904975    -0.01900
C444        C  0.10319168  0.19870395  0.52687495     0.03000
C445        C  0.07785517  0.23541565  0.46964247     0.37700
C446        C  0.09011877  0.14347489  0.53594764     0.37700
C447        C  0.12372847  0.20879918  0.55180226     0.36100
C448        C  0.03966431  0.17017399  0.45596040     0.36100
N449        N  0.14007736  0.21687522  0.57165963    -0.38700
N450        N  0.02251555  0.16400141  0.43688489    -0.38700
N451        N  0.09402784  0.12585288  0.54946164    -0.38200
N452        N  0.07659331  0.25417422  0.45541637    -0.38200
C453        C  0.21054442  0.31378094  0.51351257    -0.04800
C454        C  0.22196812  0.29756746  0.49624113    -0.01900
C455        C  0.25465204  0.31275842  0.48905833     0.03000
C456        C  0.27593983  0.34450933  0.49807378    -0.04800
C457        C  0.26530896  0.35979103  0.51693645    -0.01900
C458        C  0.23280187  0.34451365  0.52476032     0.03000
C459        C  0.20028650  0.26602315  0.48422172     0.37700
C460        C  0.28811843  0.39094804  0.52897708     0.37700
C461        C  0.22252097  0.36073249  0.54437634     0.36100
C462        C  0.26595461  0.29578821  0.47160383     0.36100
N463        N  0.21435413  0.37382919  0.55984312    -0.38700
N464        N  0.27419231  0.28143369  0.45790760    -0.38700
N465        N  0.30636968  0.41564318  0.53873365    -0.38200
N466        N  0.18321855  0.24089213  0.47455823    -0.38200
C467        C  0.11924181  0.33082295  0.51438955    -0.04800
C468        C  0.08993105  0.32314360  0.52738414    -0.01900
C469        C  0.07480197  0.34045656  0.52048368     0.03000
C470        C  0.08906408  0.36601010  0.50055293    -0.04800
C471        C  0.12068023  0.37641493  0.49083077    -0.01900
C472        C  0.13516496  0.35834538  0.49694187     0.03000
C473        C  0.07519942  0.29734300  0.54807837     0.37700
C474        C  0.13885252  0.40551638  0.47417749     0.37700
C475        C  0.16575063  0.36746292  0.48368072     0.36100
C476        C  0.04479729  0.33181231  0.53454276     0.36100
N477        N  0.19009456  0.37497877  0.47299898    -0.38700
N478        N  0.02093189  0.32458221  0.54600527    -0.38700
N479        N  0.15373984  0.42873993  0.46108795    -0.38200
N480        N  0.06342947  0.27676586  0.56451616    -0.38200
C481        C  0.49834237  0.11046048  0.38993081    -0.04800
C482        C  0.52549026  0.13120538  0.37287822    -0.01900
C483        C  0.52890619  0.15959323  0.36130488     0.03000
C484        C  0.50413934  0.16653745  0.36406044    -0.04800
C485        C  0.47605191  0.14499221  0.37908155    -0.01900
C486        C  0.47325842  0.11738570  0.39225974     0.03000
C487        C  0.55034235  0.12388000  0.36650386     0.37700
C488        C  0.44966031  0.15091647  0.38052779     0.37700
C489        C  0.44425303  0.09617683  0.40791830     0.36100
C490        C  0.55889537  0.18251026  0.34757531     0.36100
N491        N  0.42105968  0.07942840  0.42044510    -0.38700
N492        N  0.58285698  0.20075880  0.33681259    -0.38700
N493        N  0.42862458  0.15567617  0.38153445    -0.38200
N494        N  0.07009785  0.11825443  0.36053946    -0.38200
C495        C  0.50612717  0.26954248  0.36733130    -0.04800
C496        C  0.48093699  0.27582701  0.36417438    -0.01900
C497        C  0.48096946  0.30078884  0.38004604     0.03000
C498        C  0.50584610  0.31901693  0.39968867    -0.04800
C499        C  0.03172904  0.31342875  0.40174754    -0.01900
C500        C  0.03183363  0.28888747  0.38565549     0.03000
C501        C  0.45469202  0.25613408  0.34503497     0.37700
C502        C  0.05962088  0.33441045  0.41880827     0.37700
C503        C  0.05905417  0.28420054  0.38722087     0.36100
C504        C  0.45536402  0.30751900  0.37624775     0.36100
N505        N  0.08079508  0.28055377  0.38828573    -0.38700
N506        N  0.43509919  0.31312065  0.37301227    -0.38700
N507        N  0.08240601  0.35119454  0.43177238    -0.38200
N508        N  0.43368616  0.24027194  0.32984438    -0.38200
C509        C  0.05027016  0.24342409  0.21872403    -0.04800
C510        C  0.05057771  0.26820351  0.23502018    -0.01900
C511        C  0.04321114  0.26407623  0.26439491     0.03000
C512        C  0.53381392  0.23424254  0.27798012    -0.04800
C513        C  0.53589242  0.21031001  0.26176123    -0.01900
C514        C  0.04488301  0.21533660  0.23278539     0.03000
C515        C  0.05793079  0.29809189  0.22143824     0.37700
C516        C  0.52766946  0.17945163  0.27384834     0.37700
C517        C  0.04662755  0.19026515  0.21718646     0.36100
C518        C  0.04546252  0.29107041  0.28009386     0.36100
N519        N  0.04802103  0.17025060  0.20488796    -0.38700
N520        N  0.04737997  0.31277355  0.29236502    -0.38700
N521        N  0.52109973  0.15465242  0.28297837    -0.38200
N522        N  0.06330060  0.32175311  0.21062702    -0.38200
C523        C  0.26391231  0.41882983  0.36813384    -0.04800
C524        C  0.26109857  0.38954032  0.37635964    -0.01900
C525        C  0.28594403  0.38952999  0.39167704     0.03000
C526        C  0.31427646  0.41886609  0.39819420    -0.04800
C527        C  0.31711404  0.44820604  0.38980166    -0.01900
C528        C  0.29187845  0.44816320  0.37490165     0.03000
C529        C  0.23227167  0.35931490  0.36943270     0.37700
C530        C  0.34635691  0.47835436  0.39571806     0.37700
C531        C  0.29500597  0.47821848  0.36586207     0.36100
C532        C  0.28139764  0.35927455  0.40199503     0.36100
N533        N  0.29760673  0.00223353  0.35857372    -0.38700
N534        N  0.27719839  0.33498010  0.41034056    -0.38700
N535        N  0.36977085  0.50233399  0.40044450    -0.38200
N536        N  0.20930937  0.33526878  0.36383776    -0.38200
C537        C  0.16493155  0.42387167  0.36717086    -0.04800
C538        C  0.17328197  0.45094448  0.38461094    -0.01900
C539        C  0.14918528  0.45457251  0.39826029     0.03000
C540        C  0.11624861  0.43173537  0.39378672    -0.04800
C541        C  0.10835319  0.40627080  0.37398480    -0.01900
C542        C  0.13224957  0.40107907  0.36281739     0.03000
C543        C  0.20670081  0.47556033  0.38810416     0.37700
C544        C  0.07597812  0.38582098  0.36334768     0.37700
C545        C  0.12278571  0.37111962  0.34789253     0.36100
C546        C  0.15862048  0.48270285  0.41583489     0.36100
N547        N  0.11516624  0.34714062  0.33626173    -0.38700
N548        N  0.16627263  0.00525140  0.42977104    -0.38700
N549        N  0.05057306  0.36979680  0.35397963    -0.38200
N550        N  0.23333940  0.99529025  0.39087676    -0.38200
C551        C  0.19941561  0.39108845  0.28008404    -0.04800
C552        C  0.21846354  0.37999705  0.26666298    -0.01900
C553        C  0.21488722  0.37216145  0.23735545     0.03000
C554        C  0.19173485  0.37415571  0.22088570    -0.04800
C555        C  0.17047950  0.38175157  0.23458785    -0.01900
C556        C  0.17446118  0.39059611  0.26365495     0.03000
C557        C  0.24215303  0.37648204  0.28242397     0.37700
C558        C  0.14570409  0.38294620  0.21833646     0.37700
C559        C  0.15313028  0.40036987  0.27564836     0.36100
C560        C  0.23528681  0.36195017  0.22403391     0.36100
N561        N  0.13591409  0.40814401  0.28471300    -0.38700
N562        N  0.25142596  0.35364442  0.21349194    -0.38700
N563        N  0.12625027  0.38434285  0.20535658    -0.38200
N564        N  0.26118462  0.37364077  0.29469140    -0.38200
C565        C  0.36095381  0.38181948  0.61266122    -0.04800
C566        C  0.35789771  0.35656875  0.59471249    -0.01900
C567        C  0.36860934  0.36258317  0.56607765     0.03000
C568        C  0.38240605  0.39377945  0.55445394    -0.04800
C569        C  0.38881723  0.41948678  0.57294232    -0.01900
C570        C  0.37861590  0.41370299  0.60178570     0.03000
C571        C  0.34317437  0.32381317  0.60484435     0.37700
C572        C  0.40664295  0.45216210  0.56233719     0.37700
C573        C  0.38751486  0.44100263  0.62033379     0.36100
C574        C  0.36369729  0.33591211  0.54815054     0.36100
N575        N  0.39480352  0.46281818  0.63514959    -0.38700
N576        N  0.35985388  0.31462363  0.53397448    -0.38700
N577        N  0.42111671  0.47825136  0.55396230    -0.38200
N578        N  0.33203592  0.29743715  0.61215332    -0.38200
C579        C  0.20085385  0.04858607  0.88736280    -0.04800
C580        C  0.20070824  0.02542136  0.90573821    -0.01900
C581        C  0.19453343  0.02549065  0.93516272     0.03000
C582        C  0.18485241  0.04655791  0.94653295    -0.04800
C583        C  0.18505392  0.06984972  0.92786710    -0.01900
C584        C  0.19365455  0.07124249  0.89892942     0.03000
C585        C  0.20527849  0.00010020  0.89435752     0.37700
C586        C  0.17528069  0.09217035  0.93744637     0.37700
C587        C  0.19221844  0.09460860  0.88063654     0.36100
C588        C  0.19874002  0.00378036  0.95334793     0.36100
N589        N  0.19086066  0.11318576  0.86621380    -0.38700
N590        N  0.20240573  0.98650032  0.96762340    -0.38700
N591        N  0.16750545  0.11006679  0.94466616    -0.38200
N592        N  0.20836182  0.97951343  0.88546333    -0.38200
C593        C  0.34321914  0.19440524  0.88419061    -0.04800
C594        C  0.31885007  0.19538703  0.90000536    -0.01900
C595        C  0.32309126  0.20354200  0.92937558     0.03000
C596        C  0.35276282  0.21299376  0.94328461    -0.04800
C597        C  0.37629640  0.21000141  0.92736548    -0.01900
C598        C  0.37057035  0.19904166  0.89886723     0.03000
C599        C  0.28974789  0.18954104  0.88596060     0.37700
C600        C  0.40766061  0.21973106  0.93893889     0.37700
C601        C  0.39327761  0.19260622  0.88446481     0.36100
C602        C  0.29650537  0.20239624  0.94464135     0.36100
N603        N  0.41124517  0.18729267  0.87307413    -0.38700
N604        N  0.27498448  0.20124731  0.95643724    -0.38700
N605        N  0.43302456  0.22770890  0.94741072    -0.38200
N606        N  0.26655007  0.18499398  0.87484607    -0.38200
C607        C  0.31927944  0.31339030  0.69996280    -0.04800
C608        C  0.30065358  0.28147229  0.68987990    -0.01900
C609        C  0.29675588  0.25534022  0.70661670     0.03000
C610        C  0.30848821  0.26050564  0.73494764    -0.04800
C611        C  0.32251217  0.29221435  0.74622697    -0.01900
C612        C  0.33061733  0.31847584  0.72820917     0.03000
C613        C  0.28358682  0.27527952  0.66321997     0.37700
C614        C  0.32728508  0.29837918  0.77656275     0.37700
C615        C  0.35164319  0.35091603  0.73876649     0.36100
C616        C  0.27937667  0.22309216  0.69491643     0.36100
N617        N  0.36854635  0.37668940  0.74724206    -0.38700
N618        N  0.26553348  0.19739088  0.68545732    -0.38700
N619        N  0.33025116  0.30354449  0.80075158    -0.38200
N620        N  0.26922915  0.27013230  0.64231938    -0.38200
C621        C  0.35807932  0.06796872  0.88330592    -0.04800
C622        C  0.33177813  0.05480760  0.90200202    -0.01900
C623        C  0.33610766  0.05212515  0.93138435     0.03000
C624        C  0.36714166  0.06246098  0.94243724    -0.04800
C625        C  0.39380997  0.07771588  0.92372130    -0.01900
C626        C  0.38925478  0.08068165  0.89446245     0.03000
C627        C  0.30037494  0.04500305  0.89075977     0.37700
C628        C  0.42603259  0.08893428  0.93390927     0.37700
C629        C  0.41678392  0.09560955  0.87558276     0.36100
C630        C  0.30846932  0.53913414  0.95007928     0.36100
N631        N  0.43881298  0.10765339  0.86063930    -0.38700
N632        N  0.28630917  0.52870263  0.96486567    -0.38700
N633        N  0.45184958  0.09802785  0.94178042    -0.38200
N634        N  0.27575765  0.53793882  0.88112483    -0.38200
C635        C  0.31748257  0.41419725  0.69592404    -0.04800
C636        C  0.31794951  0.44010309  0.68132613    -0.01900
C637        C  0.31722638  0.46513670  0.69661297     0.03000
C638        C  0.31813086  0.46597844  0.72668034    -0.04800
C639        C  0.31409560  0.43862626  0.74112193    -0.01900
C640        C  0.31206640  0.41237481  0.72592550     0.03000
C641        C  0.31704975  0.44029742  0.65051435     0.37700
C642        C  0.31222082  0.43713867  0.77195303     0.37700
C643        C  0.30272879  0.38323574  0.74179609     0.36100
C644        C  0.31249064  0.98836100  0.68143074     0.36100
N645        N  0.29444770  0.36013812  0.75495237    -0.38700
N646        N  0.30775945  0.00624381  0.66924821    -0.38700
N647        N  0.31042448  0.43537690  0.79647404    -0.38200
N648        N  0.31612316  0.44054002  0.62593921    -0.38200
C649        C  0.39276164  0.30467639  0.82166213    -0.04800
C650        C  0.39363641  0.31504445  0.84997907    -0.01900
C651        C  0.40986517  0.34810423  0.85623445     0.03000
C652        C  0.42455583  0.37051076  0.83419424    -0.04800
C653        C  0.42208049  0.36025190  0.80580117    -0.01900
C654        C  0.40623493  0.32737712  0.79952755     0.03000
C655        C  0.37889278  0.29198605  0.87281876     0.37700
C656        C  0.43574911  0.38340905  0.78288704     0.37700
C657        C  0.40250281  0.31705807  0.77008017     0.36100
C658        C  0.41244745  0.35918279  0.88536258     0.36100
N659        N  0.39919723  0.30923183  0.74648952    -0.38700
N660        N  0.41469090  0.36819896  0.90854597    -0.38700
N661        N  0.44613090  0.40118733  0.76409257    -0.38200
N662        N  0.36708965  0.27388321  0.89124418    -0.38200
C663        C  0.03030387  0.46392250  0.83787864    -0.04800
C664        C  0.04076476  0.46965104  0.80934465    -0.01900
C665        C  0.07267442  0.47954292  0.80278109     0.03000
C666        C  0.09458452  0.98596415  0.82493546    -0.04800
C667        C  0.08418828  0.98020621  0.85346847    -0.01900
C668        C  0.05184680  0.46880063  0.85992400     0.03000
C669        C  0.01914252  0.46682062  0.78681121     0.37700
C670        C  0.10654032  0.98508495  0.87602751     0.37700
C671        C  0.04081148  0.46252325  0.88915669     0.36100
C672        C  0.08315130  0.48403899  0.77331300     0.36100
N673        N  0.03206792  0.45761087  0.91250323    -0.38700
N674        N  0.09139328  0.48742596  0.74982358    -0.38700
N675        N  0.12411926  0.98858539  0.89413313    -0.38200
N676        N  0.50247770  0.46545814  0.76865676    -0.38200
C677        C  0.43667343  0.47653671  0.84328685    -0.04800
C678        C  0.45325553  0.00623473  0.82867269    -0.01900
C679        C  0.43661885  0.02118078  0.81923738     0.03000
C680        C  0.40384206  0.00781392  0.82559836    -0.04800
C681        C  0.38826547  0.48041133  0.84309725    -0.01900
C682        C  0.40454120  0.46476265  0.85186788     0.03000
C683        C  0.48734325  0.02164834  0.82273067     0.37700
C684        C  0.35572383  0.46876043  0.85273619     0.37700
C685        C  0.38829232  0.43694152  0.87029814     0.36100
C686        C  0.45326892  0.04949731  0.80164364     0.36100
N687        N  0.37533012  0.41477135  0.88499292    -0.38700
N688        N  0.46762798  0.07193494  0.78758929    -0.38700
N689        N  0.32984213  0.45954064  0.86057027    -0.38200
N690        N  0.01461370  0.03425164  0.81844361    -0.38200
C691        C  0.47658149  0.31610391  0.69154339    -0.04800
C692        C  0.48302504  0.29611649  0.70879532    -0.01900
C693        C  0.45789906  0.26949267  0.72317442     0.03000
C694        C  0.42561542  0.26147173  0.71964056    -0.04800
C695        C  0.41908358  0.27887963  0.69909285    -0.01900
C696        C  0.44427066  0.30707419  0.68676941     0.03000
C697        C  0.01548649  0.30229832  0.71140210     0.37700
C698        C  0.38657055  0.26816310  0.69001179     0.37700
C699        C  0.43642662  0.32760312  0.67050530     0.36100
C700        C  0.46562151  0.24976620  0.74069624     0.36100
N701        N  0.42991803  0.34387551  0.65778441    -0.38700
N702        N  0.47192822  0.23406063  0.75451617    -0.38700
N703        N  0.36086841  0.25969446  0.68218397    -0.38200
N704        N  0.04133991  0.30713571  0.71349139    -0.38200
C705        C  0.08683862  0.41104451  0.69685102    -0.04800
C706        C  0.08779619  0.40900363  0.72703755    -0.01900
C707        C  0.11579997  0.43035042  0.74226055     0.03000
C708        C  0.14196781  0.45605283  0.72818737    -0.04800
C709        C  0.14231512  0.45668648  0.69820433    -0.01900
C710        C  0.11552275  0.43349346  0.68259187     0.03000
C711        C  0.05984599  0.38630408  0.74325365     0.37700
C712        C  0.17061561  0.98095426  0.68336204     0.37700
C713        C  0.11822215  0.43251552  0.65189970     0.36100
C714        C  0.11700578  0.42616195  0.77268293     0.36100
N715        N  0.12061323  0.43167367  0.62746873    -0.38700
N716        N  0.11766378  0.42197086  0.79680702    -0.38700
N717        N  0.19317714  0.00022785  0.67146047    -0.38200
N718        N  0.03776376  0.36846350  0.75655175    -0.38200
C719        C  0.02011461  0.39187415  0.61013657    -0.04800
C720        C  0.99703531  0.36874113  0.59105116    -0.01900
C721        C  0.99589841  0.37675996  0.56242046     0.03000
C722        C  0.01934755  0.40714378  0.55157044    -0.04800
C723        C  0.04062850  0.43094460  0.57083596    -0.01900
C724        C  0.04033575  0.42373335  0.59999795     0.03000
C725        C  0.97537835  0.33572217  0.59973240     0.37700
C726        C  0.06294662  0.46312430  0.56068520     0.37700
C727        C  0.06088512  0.44957650  0.61932513     0.36100
C728        C  0.47144258  0.35251795  0.54392447     0.36100
N729        N  0.07725886  0.47037858  0.63459285    -0.38700
N730        N  0.45181559  0.33309005  0.52941495    -0.38700
N731        N  0.08067150  0.48881297  0.55261708    -0.38200
N732        N  0.45810112  0.30927549  0.60623191    -0.38200
C733        C  0.08303589  0.07158540  0.70322552    -0.04800
C734        C  0.11323090  0.08068824  0.69091861    -0.01900
C735        C  0.13812632  0.08172848  0.70746384     0.03000
C736        C  0.13348917  0.07365297  0.73683847    -0.04800
C737        C  0.10353702  0.06593932  0.74928897    -0.01900
C738        C  0.07842675  0.06377300  0.73247531     0.03000
C739        C  0.11924169  0.08941420  0.66108081     0.37700
C740        C  0.09780393  0.06035235  0.77963556     0.37700
C741        C  0.04708497  0.05175643  0.74530963     0.36100
C742        C  0.16883240  0.09220461  0.69394548     0.36100
N743        N  0.02195280  0.04210398  0.75519825    -0.38700
N744        N  0.19325999  0.10070573  0.68299561    -0.38700
N745        N  0.09301442  0.05616070  0.80380140    -0.38200
N746        N  0.12412579  0.09614164  0.63727030    -0.38200
C747        C  0.44057722  0.09342314  0.72520290    -0.04800
C748        C  0.43330110  0.07634080  0.69929647    -0.01900
C749        C  0.45655512  0.07200780  0.68529447     0.03000
C750        C  0.48814312  0.08581629  0.69653340    -0.04800
C751        C  0.99649441  0.10690209  0.72017902    -0.01900
C752        C  0.47285684  0.11072576  0.73430983     0.03000
C753        C  0.40173874  0.06283506  0.68682844     0.37700
C754        C  0.02950468  0.12550733  0.72964956     0.37700
C755        C  0.48185910  0.13289468  0.75810938     0.36100
C756        C  0.44696253  0.05243086  0.65964497     0.36100
N757        N  0.48901214  0.15043586  0.77717529    -0.38700
N758        N  0.43916245  0.03714085  0.63904271    -0.38700
N759        N  0.05586081  0.14051416  0.73715110    -0.38200
N760        N  0.37694124  0.05265942  0.67624039    -0.38200
C761        C  0.02696433  0.05853744  0.61127924    -0.04800
C762        C  0.02510320  0.08163612  0.59459475    -0.01900
C763        C  0.01746953  0.07590355  0.56565383     0.03000
C764        C  0.01511040  0.04848406  0.55204647    -0.04800
C765        C  0.01672989  0.02516051  0.56877342    -0.01900
C766        C  0.02220595  0.02998427  0.59843382     0.03000
C767        C  0.03164410  0.11196915  0.60711089     0.37700
C768        C  0.01005198  0.99513285  0.55583483     0.37700
C769        C  0.02129356  0.00498390  0.61591504     0.36100
C770        C  0.01172635  0.09857645  0.55049345     0.36100
N771        N  0.02022546  0.98497533  0.63005402    -0.38700
N772        N  0.00659362  0.11658298  0.53905194    -0.38700
N773        N  0.00407294  0.47104935  0.54529418    -0.38200
N774        N  0.03683962  0.13610301  0.61700182    -0.38200
C775        C  0.02954051  0.56322548  0.64249809     0.80700
N776        N  0.00954198  0.57107319  0.65532388    -0.77600
C777        C  0.01205442  0.57864527  0.68318483     0.83200
N778        N  0.03595085  0.57884322  0.69840150    -0.77500
C779        C  0.05657077  0.57096537  0.68602872     0.83300
N780        N  0.05301877  0.56296289  0.65787496    -0.79200
C781        C  0.02388950  0.88253330  0.63987118     0.80700
N782        N  0.05192965  0.89988671  0.65432469    -0.77600
C783        C  0.05616048  0.89077183  0.68053009     0.83200
N784        N  0.03163261  0.86366033  0.69211650    -0.77500
C785        C  0.00339854  0.84591423  0.67828569     0.83300
N786        N  0.99985892  0.85567639  0.65226853    -0.79200
C787        C  0.45101017  0.95581128  0.84594503     0.80700
N788        N  0.48330591  0.96878125  0.84638398    -0.77600
C789        C  0.99614971  0.94979170  0.84387381     0.83200
N790        N  0.47684457  0.91775770  0.84073576    -0.77500
C791        C  0.44474981  0.90458734  0.84080246     0.83300
N792        N  0.43186537  0.92353241  0.84275860    -0.79200
O793        O  0.29594268  0.53839057  0.75632756    -0.84800
O794        O  0.34395270  0.60152778  0.76027131    -0.81900
C795        C  0.36582465  0.62516792  0.77367934     0.98600
O796        O  0.38752314  0.62315248  0.78673434    -0.81900
O797        O  0.36646064  0.58763099  0.83566170    -0.84600
C798        C  0.35302542  0.56381899  0.85198578     1.03200
O799        O  0.33866302  0.53570401  0.84177376    -0.77300
O800        O  0.29242275  0.52912272  0.80237995    -0.77500
C801        C  0.28062355  0.53237258  0.77962694     1.03100
O802        O  0.34303075  0.52301910  0.73427434    -0.84800
O803        O  0.38901461  0.58727557  0.73480692    -0.81900
C804        C  0.41417034  0.58918087  0.74453699     0.98600
O805        O  0.41660775  0.58558649  0.77062762    -0.81900
O806        O  0.39756459  0.55285996  0.81991272    -0.84500
C807        C  0.38626908  0.52322565  0.81506210     1.03100
O808        O  0.35983133  0.50651440  0.80241227    -0.77300
O809        O  0.30904939  0.99195293  0.76633141    -0.77500
C810        C  0.32351774  0.49513107  0.74308014     1.03100
Cr811      Cr  0.34373256  0.56197965  0.74926957     1.93700
Cr812      Cr  0.38906647  0.58510195  0.80159091     1.93200
Cr813      Cr  0.32692670  0.51890217  0.80177845     1.39100
O814        O  0.35333200  0.55570070  0.78430309    -1.22600
O815        O  0.35694704  0.66446892  0.75270223    -0.84800
O816        O  0.29654804  0.64958273  0.76229868    -0.81900
C817        C  0.27424694  0.64640283  0.77807856     0.98600
O818        O  0.27676963  0.66967705  0.79256187    -0.81900
O819        O  0.31801426  0.68314314  0.83787173    -0.84600
C820        C  0.34348156  0.69485939  0.85216922     1.03200
O821        O  0.37007903  0.71098921  0.83949120    -0.77300
O822        O  0.37330208  0.67171433  0.79730654    -0.77500
C823        C  0.36549480  0.65538496  0.77461071     1.03100
O824        O  0.37061965  0.72810483  0.73342300    -0.84800
O825        O  0.30892745  0.71081682  0.73974595    -0.81900
C826        C  0.30949635  0.73452813  0.75189886     0.98600
O827        O  0.31326097  0.73776837  0.77836012    -0.81900
O828        O  0.35040120  0.75053408  0.82429882    -0.84500
C829        C  0.37803388  0.77036717  0.81480404     1.03100
O830        O  0.39335493  0.76129310  0.79951936    -0.77300
O831        O  0.40538914  0.72614138  0.76045857    -0.77500
C832        C  0.39927090  0.73707449  0.73855979     1.03100
Cr833      Cr  0.33400019  0.68938562  0.74974751     1.93700
Cr834      Cr  0.31642257  0.70949662  0.80640936     1.93200
Cr835      Cr  0.38250678  0.71638654  0.79821758     1.39100
O836        O  0.34387140  0.70459686  0.78489111    -1.22600
O837        O  0.24537852  0.59260224  0.76472663    -0.84800
O838        O  0.23719854  0.53342222  0.75746962    -0.81900
C839        C  0.24866742  0.52889155  0.78010843     0.98600
O840        O  0.23282012  0.52116546  0.80302577    -0.81900
O841        O  0.18964687  0.51857058  0.84421194    -0.84600
C842        C  0.20305869  0.54600840  0.85570923     1.03200
O843        O  0.21349181  0.57034293  0.84001727    -0.77300
O844        O  0.22144589  0.60925835  0.79399049    -0.77500
C845        C  0.24535708  0.61453787  0.77910707     1.03100
O846        O  0.18256587  0.57225054  0.74213831    -0.84800
O847        O  0.17175563  0.51186411  0.73782353    -0.81900
C848        C  0.16604619  0.48444645  0.74472062     0.98600
O849        O  0.17957133  0.98140155  0.76636044    -0.81900
O850        O  0.14017839  0.48893488  0.80390105    -0.84500
C851        C  0.12878669  0.50272500  0.81839242     1.03100
O852        O  0.14619578  0.53132777  0.82717600    -0.77300
O853        O  0.15479482  0.56663968  0.78037639    -0.77500
C854        C  0.15851219  0.57107368  0.75400501     1.03100
Cr855      Cr  0.20815062  0.55176100  0.75315717     1.93700
Cr856      Cr  0.18644583  0.50535491  0.80324714     1.93200
Cr857      Cr  0.18496685  0.56767866  0.80875545     1.39100
O858        O  0.19339750  0.54200057  0.78833838    -1.22600
C859        C  0.34551106  0.87501862  0.64208146     0.80700
N860        N  0.33762786  0.89577993  0.65445051    -0.77600
C861        C  0.32326233  0.88979040  0.68058225     0.83200
N862        N  0.31689344  0.86246449  0.69405733    -0.77500
C863        C  0.32446828  0.84148931  0.68259159     0.83300
N864        N  0.33891884  0.84793934  0.65665068    -0.79200
C865        C  0.20571392  0.90331497  0.31060719     0.80700
N866        N  0.18493738  0.90947173  0.32467098    -0.77600
C867        C  0.18977280  0.91972329  0.35216292     0.83200
N868        N  0.21609709  0.92386755  0.36606693    -0.77500
C869        C  0.23740273  0.91825030  0.35230944     0.83300
N870        N  0.23203878  0.90797436  0.32487923    -0.79200
C871        C  0.52194815  0.72803791  0.30853754     0.80700
N872        N  0.51647062  0.74909044  0.32316208    -0.77600
C873        C  0.50682963  0.74379139  0.35077460     0.83200
N874        N  0.50259938  0.71706638  0.36419926    -0.77500
C875        C  0.50732306  0.69546030  0.34977960     0.83300
N876        N  0.51710173  0.70135985  0.32230844    -0.79200
C877        C  0.13183284  0.80881398  0.51740765     0.80700
N878        N  0.16378081  0.82038228  0.51778564    -0.77600
C879        C  0.17551468  0.80031391  0.51750725     0.83200
N880        N  0.15468923  0.76816784  0.51681129    -0.77500
C881        C  0.12266495  0.75624041  0.51613526     0.83300
N882        N  0.11137482  0.77664340  0.51623626    -0.79200
O883        O  0.48546747  0.91126656  0.43269489    -0.84800
O884        O  0.04501446  0.96025630  0.42334013    -0.81900
C885        C  0.04972496  0.97641182  0.44599227     0.98600
O886        O  0.05785854  0.96864445  0.46853951    -0.81900
O887        O  0.05325804  0.92648074  0.51043601    -0.84600
C888        C  0.02483168  0.91165261  0.52013271     1.03200
O889        O  0.00178708  0.89647376  0.50324791    -0.77300
O890        O  0.46652276  0.86577581  0.45552334    -0.77500
C891        C  0.46263430  0.88736517  0.44452906     1.03100
O892        O  0.50057298  0.86525482  0.40828240    -0.84800
O893        O  0.06156113  0.91343193  0.40374376    -0.81900
C894        C  0.09002658  0.93219181  0.41090192     0.98600
O895        O  0.09554950  0.94958021  0.43298225    -0.81900
O896        O  0.08462518  0.90493371  0.47316925    -0.84500
C897        C  0.07079095  0.88072631  0.48896951     1.03100
O898        O  0.04133644  0.86880026  0.49463103    -0.77300
O899        O  0.51143334  0.84404085  0.44434264    -0.77500
C900        C  0.50557205  0.84391763  0.41830847     1.03100
Cr901      Cr  0.02391277  0.91227956  0.41944560     1.93700
Cr902      Cr  0.07018594  0.93570813  0.47001584     1.93200
Cr903      Cr  0.50696373  0.87123865  0.47297717     1.39100
O904        O  0.03363910  0.90646106  0.45417941    -1.22600
O905        O  0.02273262  0.00246602  0.43117068    -0.84800
O906        O  0.47102512  0.00984582  0.42233298    -0.81900
C907        C  0.45364574  0.00052030  0.44469231     0.98600
O908        O  0.46151014  0.51814307  0.46640792    -0.81900
O909        O  0.00080481  0.55922867  0.50718637    -0.84600
C910        C  0.01413796  0.54663991  0.52036952     1.03200
O911        O  0.03048018  0.53745212  0.50678074    -0.77300
O912        O  0.06224626  0.52820039  0.46160301    -0.77500
C913        C  0.04485443  0.00394094  0.44614897     1.03100
O914        O  0.06653694  0.56539574  0.40861286    -0.84800
O915        O  0.51768410  0.57528315  0.40142842    -0.81900
C916        C  0.49822581  0.58415700  0.40721038     0.98600
O917        O  0.48019213  0.57186289  0.42852501    -0.81900
O918        O  0.02535521  0.61041546  0.46831548    -0.84500
C919        C  0.04937994  0.62176544  0.48455963     1.03100
O920        O  0.06019334  0.60415047  0.49247744    -0.77300
O921        O  0.08796111  0.59476571  0.44671851    -0.77500
C922        C  0.08921859  0.59015877  0.42055670     1.03100
Cr923      Cr  0.01949155  0.53937056  0.41864493     1.93700
Cr924      Cr  0.49414612  0.56395641  0.46636656     1.93200
Cr925      Cr  0.05738772  0.56499580  0.47499870     1.39100
O926        O  0.02369952  0.55566901  0.45340661    -1.22600
O927        O  0.41257210  0.95221266  0.42361568    -0.84800
O928        O  0.43000384  0.90765975  0.43255595    -0.81900
C929        C  0.43165471  0.88541358  0.44470537     0.98600
O930        O  0.40738665  0.86211147  0.45646452    -0.81900
O931        O  0.39299385  0.88303597  0.50663481    -0.84600
C932        C  0.38405695  0.89804341  0.52266957     1.03200
O933        O  0.37196556  0.91333692  0.51192681    -0.77300
O934        O  0.41007223  0.95787068  0.46960805    -0.77500
C935        C  0.42400002  0.96869126  0.44600764     1.03100
O936        O  0.35026571  0.90021597  0.40554398    -0.84800
O937        O  0.37285340  0.85883929  0.40663908    -0.81900
C938        C  0.34759580  0.83430296  0.41504445     0.98600
O939        O  0.33977355  0.83204629  0.44083877    -0.81900
O940        O  0.32702094  0.85066866  0.49130966    -0.84500
C941        C  0.30910010  0.86214696  0.48735309     1.03100
O942        O  0.31912499  0.88876132  0.47510192    -0.77300
O943        O  0.35277087  0.93584035  0.43573402    -0.77500
C944        C  0.34049207  0.91841083  0.41390260     1.03100
Cr945      Cr  0.39012106  0.90409364  0.41988691     1.93700
Cr946      Cr  0.36760079  0.85978532  0.47225803     1.93200
Cr947      Cr  0.36471057  0.92221528  0.47179699     1.39100
O948        O  0.37436386  0.89532570  0.45500767    -1.22600
C949        C  0.20765114  0.71794864  0.30761394     0.80700
N950        N  0.23623522  0.73962486  0.31963854    -0.77600
C951        C  0.24286615  0.73626422  0.34715422     0.83200
N952        N  0.22016671  0.71087667  0.36228707    -0.77500
C953        C  0.19185188  0.68868426  0.35042658     0.83300
N954        N  0.18567277  0.69235119  0.32304132    -0.79200
C955        C  0.37158985  0.55686937  0.97309767     0.80700
N956        N  0.34934620  0.52953963  0.98652550    -0.77600
C957        C  0.35310441  0.52444037  0.01427407     0.83200
N958        N  0.37911752  0.54685544  0.02880580    -0.77500
C959        C  0.40168847  0.57397378  0.01566264     0.83300
N960        N  0.39766870  0.57912704  0.98799595    -0.79200
C961        C  0.35926940  0.72578973  0.97379936     0.80700
N962        N  0.33851723  0.73198941  0.98826947    -0.77600
C963        C  0.34467917  0.74323663  0.01557029     0.83200
N964        N  0.37204496  0.74855920  0.02833920    -0.77500
C965        C  0.39300431  0.74258764  0.01460270     0.83300
N966        N  0.38627745  0.73123547  0.98750438    -0.79200
C967        C  0.28645851  0.62894731  0.18521784     0.80700
N968        N  0.31842307  0.64967548  0.18775869    -0.77600
C969        C  0.33913051  0.63877053  0.18954544     0.83200
N970        N  0.32726601  0.60662157  0.18896715    -0.77500
C971        C  0.29534517  0.58565004  0.18684165     0.83300
N972        N  0.27506929  0.59696670  0.18464721    -0.79200
O973        O  0.08055607  0.78701991  0.08886227    -0.84800
O974        O  0.09115934  0.73831996  0.09857861    -0.81900
C975        C  0.09026428  0.71567376  0.11225014     0.98600
O976        O  0.06538698  0.69611514  0.12609075    -0.81900
O977        O  0.05814434  0.72835046  0.17188442    -0.84600
C978        C  0.04925538  0.74406867  0.18689529     1.03200
O979        O  0.03471528  0.75649905  0.17522794    -0.77300
O980        O  0.07327846  0.79694145  0.13307600    -0.77500
C981        C  0.09062203  0.80412475  0.11127296     1.03100
O982        O  0.01581013  0.73843066  0.06896728    -0.84800
O983        O  0.02926978  0.69164213  0.07619860    -0.81900
C984        C  0.00309038  0.67017956  0.08697730     0.98600
O985        O  0.99768402  0.67079190  0.11310674    -0.81900
O986        O  0.49058969  0.69743946  0.16155133    -0.84500
C987        C  0.47238888  0.70799787  0.15490700     1.03100
O988        O  0.48223088  0.73066037  0.13733548    -0.77300
O989        O  0.01755448  0.77521944  0.09642528    -0.77500
C990        C  0.00576686  0.75698644  0.07493962     1.03100
Cr991      Cr  0.05302155  0.73879600  0.08576106     1.93700
Cr992      Cr  0.02881995  0.70059371  0.14142762     1.93200
Cr993      Cr  0.02795268  0.76294564  0.13425427     1.39100
O994        O  0.03702087  0.73423656  0.12056090    -1.22600
O995        O  0.20536252  0.84382930  0.09036274    -0.84800
O996        O  0.14482448  0.83271971  0.09751844    -0.81900
C997        C  0.12306958  0.83244294  0.11231327     0.98600
O998        O  0.12888734  0.85561634  0.12871852    -0.81900
O999        O  0.16890454  0.86423204  0.17403800    -0.84600
C1000       C  0.19363833  0.87445495  0.18911931     1.03200
O1001       O  0.22084822  0.88963979  0.17741319    -0.77300
O1002       O  0.22132434  0.84995049  0.13503489    -0.77500
C1003       C  0.21203528  0.83339671  0.11258702     1.03100
O1004       O  0.22374988  0.90969389  0.07180673    -0.84800
O1005       O  0.16298981  0.89551254  0.07749283    -0.81900
C1006       C  0.16279914  0.91856592  0.09011256     0.98600
O1007       O  0.16857173  0.92273275  0.11630946    -0.81900
O1008       O  0.20547009  0.93244084  0.16259490    -0.84500
C1009       C  0.23430611  0.95132167  0.15511275     1.03100
O1010       O  0.24790074  0.94122031  0.13878395    -0.77300
O1011       O  0.25727175  0.90504853  0.09881609    -0.77500
C1012       C  0.25205298  0.91829134  0.07814530     1.03100
Cr1013     Cr  0.18536441  0.87152304  0.08699948     1.93700
Cr1014     Cr  0.16980571  0.89293156  0.14371342     1.93200
Cr1015     Cr  0.23377045  0.89540709  0.13628400     1.39100
O1016       O  0.19583001  0.88616478  0.12234013    -1.22600
O1017       O  0.13629798  0.72093031  0.08950493    -0.84800
O1018       O  0.18865571  0.78062719  0.09546532    -0.81900
C1019       C  0.20848998  0.80137985  0.11237678     0.98600
O1020       O  0.22454510  0.79498880  0.12950494    -0.81900
O1021       O  0.19661205  0.75212555  0.17508836    -0.84600
C1022       C  0.18094788  0.72561010  0.18798983     1.03200
O1023       O  0.16641350  0.70014740  0.17368687    -0.77300
O1024       O  0.12590554  0.70204273  0.13336900    -0.77500
C1025       C  0.11882077  0.71247059  0.11173758     1.03100
O1026       O  0.18044891  0.70031788  0.06784751    -0.84800
O1027       O  0.22984327  0.75932838  0.07258477    -0.81900
C1028       C  0.25296721  0.75938465  0.08486009     0.98600
O1029       O  0.25308773  0.75748351  0.11151246    -0.81900
O1030       O  0.22695116  0.71818712  0.15602557    -0.84500
C1031       C  0.21547188  0.68913996  0.14870056     1.03100
O1032       O  0.19026306  0.67495537  0.13368926    -0.77300
O1033       O  0.14271935  0.66707699  0.09532872    -0.77500
C1034       C  0.15955862  0.67202506  0.07347146     1.03100
Cr1035     Cr  0.18388418  0.73923121  0.08444528     1.93700
Cr1036     Cr  0.22233276  0.75397258  0.14098667     1.93200
Cr1037     Cr  0.15875128  0.68956687  0.13273552     1.39100
O1038       O  0.18834287  0.72823375  0.11959949    -1.22600
C1039       C  0.17381748  0.54376852  0.97719086     0.80700
N1040       N  0.16789898  0.51826788  0.99370750    -0.77600
C1041       C  0.15789347  0.51592802  0.02116320     0.83200
N1042       N  0.15351879  0.53941811  0.03204122    -0.77500
C1043       C  0.15951585  0.56511379  0.01614840     0.83300
N1044       N  0.16967028  0.56702399  0.98897631    -0.79200
C1045       C  0.15643396  0.64476285  0.05545789    -0.04800
C1046       C  0.13113047  0.61263522  0.05992492    -0.01900
C1047       C  0.13170600  0.58668466  0.04659848     0.03000
C1048       C  0.15772372  0.59230654  0.02901452    -0.04800
C1049       C  0.18242924  0.62421104  0.02385566    -0.01900
C1050       C  0.18089054  0.65018928  0.03557418     0.03000
C1051       C  0.10393003  0.60584666  0.07774877     0.37700
C1052       C  0.21099267  0.63060133  0.00822335     0.37700
C1053       C  0.20479902  0.68231517  0.02653564     0.36100
C1054       C  0.10535131  0.55411212  0.05105155     0.36100
N1055       N  0.22369300  0.70764669  0.01856457    -0.38700
N1056       N  0.08435281  0.52813838  0.05468381    -0.38700
N1057       N  0.23390152  0.63572944  0.99609938    -0.38200
N1058       N  0.08215515  0.60028436  0.09189586    -0.38200
C1059       C  0.15490921  0.98965593  0.03996048    -0.04800
C1060       C  0.16508817  0.99615106  0.06866698    -0.01900
C1061       C  0.16581847  0.97250834  0.08550909     0.03000
C1062       C  0.15695402  0.94185398  0.07381434    -0.04800
C1063       C  0.14409007  0.93459149  0.04582938    -0.01900
C1064       C  0.14299347  0.95826169  0.02918429     0.03000
C1065       C  0.17586958  0.52760234  0.08106796     0.37700
C1066       C  0.13125977  0.90260444  0.03395316     0.37700
C1067       C  0.12850580  0.94981682  0.00113913     0.36100
C1068       C  0.17688793  0.98091628  0.11470089     0.36100
N1069       N  0.11683616  0.94302685  0.97884611    -0.38700
N1070       N  0.18578919  0.98810445  0.13784653    -0.38700
N1071       N  0.12098838  0.87713266  0.02436357    -0.38200
N1072       N  0.18401178  0.55253813  0.09098464    -0.38200
C1073       C  0.26529313  0.64147008  0.17779438    -0.04800
C1074       C  0.26638952  0.66646133  0.19398139    -0.01900
C1075       C  0.25034078  0.68204846  0.18457756     0.03000
C1076       C  0.23171195  0.67183692  0.15912923    -0.04800
C1077       C  0.22988451  0.64585222  0.14347741    -0.01900
C1078       C  0.24666931  0.63087751  0.15272987     0.03000
C1079       C  0.28405799  0.67609135  0.22059490     0.37700
C1080       C  0.21275209  0.63572074  0.11670561     0.37700
C1081       C  0.24632387  0.60575866  0.13543869     0.36100
C1082       C  0.25443055  0.70935177  0.20104535     0.36100
N1083       N  0.24644002  0.58576368  0.12195515    -0.38700
N1084       N  0.25852222  0.73142228  0.21416826    -0.38700
N1085       N  0.19932951  0.62741253  0.09524914    -0.38200
N1086       N  0.29803135  0.68366933  0.24183378    -0.38200
C1087       C  0.25224238  0.98529505  0.16600342    -0.04800
C1088       C  0.28286344  0.50806982  0.15472559    -0.01900
C1089       C  0.29761453  0.54075450  0.16234019     0.03000
C1090       C  0.28283636  0.55102319  0.18221928    -0.04800
C1091       C  0.25421422  0.52826028  0.19562350    -0.01900
C1092       C  0.23878005  0.99571342  0.18750319     0.03000
C1093       C  0.29981664  0.99869575  0.13508278     0.37700
C1094       C  0.24052780  0.53839943  0.21801593     0.37700
C1095       C  0.20890667  0.97361762  0.20163679     0.36100
C1096       C  0.32729407  0.56395812  0.14837110     0.36100
N1097       N  0.18503056  0.95680172  0.21320040    -0.38700
N1098       N  0.35091843  0.58236653  0.13722456    -0.38700
N1099       N  0.22962007  0.54643756  0.23583576    -0.38200
N1100       N  0.31393286  0.99174025  0.11966819    -0.38200
C1101       C  0.37438591  0.66107308  0.18620221    -0.04800
C1102       C  0.39609971  0.65266567  0.19741200    -0.01900
C1103       C  0.42840937  0.66893644  0.18852987     0.03000
C1104       C  0.43954270  0.69386345  0.16794419    -0.04800
C1105       C  0.41861639  0.70491305  0.15977220    -0.01900
C1106       C  0.38640407  0.68866533  0.16878086     0.03000
C1107       C  0.38526485  0.62704757  0.21821479     0.37700
C1108       C  0.42940718  0.73278617  0.14161909     0.37700
C1109       C  0.36564843  0.70004255  0.15876059     0.36100
C1110       C  0.44974199  0.65959119  0.20104621     0.36100
N1111       N  0.34936954  0.70939532  0.15079913    -0.38700
N1112       N  0.46644127  0.65192216  0.21128620    -0.38700
N1113       N  0.43746092  0.75491761  0.12719417    -0.38200
N1114       N  0.37672438  0.60656667  0.23467806    -0.38200
C1115       C  0.32107703  0.74775057  0.03265633    -0.04800
C1116       C  0.30589660  0.76373243  0.02157661    -0.01900
C1117       C  0.28540203  0.76958568  0.03897830     0.03000
C1118       C  0.27913447  0.75890155  0.06765100    -0.04800
C1119       C  0.29556332  0.74400795  0.07881921    -0.01900
C1120       C  0.31521867  0.73750581  0.06128406     0.03000
C1121       C  0.31137508  0.77438047  0.99225493     0.37700
C1122       C  0.29312878  0.73538665  0.10859348     0.37700
C1123       C  0.32819487  0.71860722  0.07267007     0.36100
C1124       C  0.27164667  0.78758176  0.02739818     0.36100
N1125       N  0.33843463  0.70348703  0.08168385    -0.38700
N1126       N  0.26083129  0.80208334  0.01815116    -0.38700
N1127       N  0.29243982  0.72900704  0.13234576    -0.38200
N1128       N  0.31544973  0.78267288  0.96879576    -0.38200
C1129       C  0.42248769  0.74723416  0.02945338    -0.04800
C1130       C  0.43308104  0.72529057  0.02486701    -0.01900
C1131       C  0.46196264  0.73061830  0.03705588     0.03000
C1132       C  0.47897453  0.75576763  0.05733825    -0.04800
C1133       C  0.46809089  0.77765237  0.06208144    -0.01900
C1134       C  0.44038475  0.77358575  0.04808289     0.03000
C1135       C  0.41318677  0.69569184  0.00911777     0.37700
C1136       C  0.48561133  0.80509602  0.08083139     0.37700
C1137       C  0.43045236  0.79684132  0.05303410     0.36100
C1138       C  0.47408962  0.71026111  0.02748148     0.36100
N1139       N  0.42247563  0.81530887  0.05716910    -0.38700
N1140       N  0.48365576  0.69421208  0.01911469    -0.38700
N1141       N  0.49940570  0.82701702  0.09579933    -0.38200
N1142       N  0.39730712  0.67194057  0.99684042    -0.38200
C1143       C  0.32714705  0.99668591  0.02977573    -0.04800
C1144       C  0.32824045  0.96841700  0.03403678    -0.01900
C1145       C  0.30392881  0.94262637  0.04994264     0.03000
C1146       C  0.27866014  0.94524563  0.06201047    -0.04800
C1147       C  0.27824652  0.97405724  0.05821671    -0.01900
C1148       C  0.30203621  0.99936197  0.04184387     0.03000
C1149       C  0.35432610  0.96590161  0.02184988     0.37700
C1150       C  0.25459557  0.97877169  0.07277561     0.37700
C1151       C  0.30086411  0.02845112  0.03771802     0.36100
C1152       C  0.30449553  0.91318542  0.05323395     0.36100
N1153       N  0.29969633  0.05149352  0.03437689    -0.38700
N1154       N  0.30490512  0.88963887  0.05578888    -0.38700
N1155       N  0.23634647  0.98317029  0.08474090    -0.38200
N1156       N  0.37522460  0.96405758  0.01206113    -0.38200
C1157       C  0.47752738  0.64517231  0.06854863    -0.04800
C1158       C  0.44657878  0.64135270  0.06886693    -0.01900
C1159       C  0.42228115  0.61872626  0.05089528     0.03000
C1160       C  0.42837085  0.59933782  0.03264039    -0.04800
C1161       C  0.45927610  0.60334447  0.03179205    -0.01900
C1162       C  0.48389983  0.62637607  0.04956539     0.03000
C1163       C  0.43990340  0.66205482  0.08624617     0.37700
C1164       C  0.46554056  0.58342273  0.01293075     0.37700
C1165       C  0.01552032  0.63019977  0.04877595     0.36100
C1166       C  0.39108610  0.61602927  0.05060520     0.36100
N1167       N  0.04078314  0.63330487  0.04815479    -0.38700
N1168       N  0.36638308  0.61420661  0.05031613    -0.38700
N1169       N  0.47049993  0.56747876  0.99787726    -0.38200
N1170       N  0.43370210  0.67837221  0.09941730    -0.38200
C1171       C  0.20068588  0.72078472  0.27730384    -0.04800
C1172       C  0.19550322  0.69613354  0.25827540    -0.01900
C1173       C  0.18500062  0.69578683  0.23037241     0.03000
C1174       C  0.18386388  0.72268408  0.21956995    -0.04800
C1175       C  0.18867865  0.74730190  0.23881286    -0.01900
C1176       C  0.19660523  0.74612713  0.26767425     0.03000
C1177       C  0.20358890  0.67229194  0.26660439     0.37700
C1178       C  0.18263165  0.77217891  0.22950671     0.37700
C1179       C  0.19985866  0.77058248  0.28754125     0.36100
C1180       C  0.17569228  0.66729250  0.21322766     0.36100
N1181       N  0.20232327  0.79010235  0.30336073    -0.38700
N1182       N  0.16785662  0.64414417  0.20011656    -0.38700
N1183       N  0.17693523  0.79144178  0.22201605    -0.38200
N1184       N  0.21096048  0.65379603  0.27249017    -0.38200
C1185       C  0.27381107  0.76074173  0.36150600    -0.04800
C1186       C  0.28532353  0.75216277  0.38576960    -0.01900
C1187       C  0.31101318  0.77596072  0.40211285     0.03000
C1188       C  0.32610404  0.80860979  0.39442645    -0.04800
C1189       C  0.31793472  0.81667878  0.36815342    -0.01900
C1190       C  0.29158850  0.79319587  0.35215359     0.03000
C1191       C  0.27128932  0.71880082  0.39412052     0.37700
C1192       C  0.33577601  0.84945923  0.35774485     0.37700
C1193       C  0.28251430  0.80343359  0.32671454     0.36100
C1194       C  0.32252864  0.76674779  0.42666008     0.36100
N1195       N  0.27588359  0.81219749  0.30643566    -0.38700
N1196       N  0.33179256  0.75949491  0.44621940    -0.38700
N1197       N  0.34989828  0.87533391  0.34884996    -0.38200
N1198       N  0.26022231  0.69227517  0.40098429    -0.38200
C1199       C  0.16651594  0.66298415  0.36851670    -0.04800
C1200       C  0.15649954  0.67177618  0.39333209    -0.01900
C1201       C  0.13258861  0.64809456  0.41092228     0.03000
C1202       C  0.11735443  0.61492877  0.40358215    -0.04800
C1203       C  0.12825325  0.60615836  0.37909922    -0.01900
C1204       C  0.15250994  0.63003596  0.36161972     0.03000
C1205       C  0.16997989  0.70560354  0.40027043     0.37700
C1206       C  0.11552813  0.57248019  0.37241374     0.37700
C1207       C  0.16350499  0.62031665  0.33700803     0.36100
C1208       C  0.12410586  0.65878091  0.43648752     0.36100
N1209       N  0.17170778  0.61151661  0.31764847    -0.38700
N1210       N  0.11884405  0.66864415  0.45689810    -0.38700
N1211       N  0.10550002  0.54560652  0.36721733    -0.38200
N1212       N  0.18072864  0.73255387  0.40562036    -0.38200
C1213       C  0.10080563  0.72167493  0.51059641    -0.04800
C1214       C  0.07949298  0.71175370  0.48736872    -0.01900
C1215       C  0.06122137  0.67902476  0.47996689     0.03000
C1216       C  0.06508727  0.65581470  0.49496102    -0.04800
C1217       C  0.08582109  0.66602723  0.51904982    -0.01900
C1218       C  0.10319200  0.69870381  0.52687496     0.03000
C1219       C  0.07785361  0.73541509  0.46964352     0.37700
C1220       C  0.09011917  0.64347478  0.53594756     0.37700
C1221       C  0.12372933  0.70879920  0.55180185     0.36100
C1222       C  0.03966309  0.67017349  0.45596154     0.36100
N1223       N  0.14007855  0.71687527  0.57165900    -0.38700
N1224       N  0.02251365  0.66400073  0.43688643    -0.38700
N1225       N  0.09402821  0.62585275  0.54946159    -0.38200
N1226       N  0.07659108  0.75417358  0.45541781    -0.38200
C1227       C  0.21054433  0.81378073  0.51351248    -0.04800
C1228       C  0.22196827  0.79756721  0.49624164    -0.01900
C1229       C  0.25465228  0.81275828  0.48905857     0.03000
C1230       C  0.27593988  0.84450935  0.49807365    -0.04800
C1231       C  0.26530875  0.85979109  0.51693601    -0.01900
C1232       C  0.23280196  0.84451398  0.52475990     0.03000
C1233       C  0.20028684  0.76602214  0.48422295     0.37700
C1234       C  0.28811831  0.89094848  0.52897633     0.37700
C1235       C  0.22252089  0.86073297  0.54437531     0.36100
C1236       C  0.26595483  0.79578798  0.47160439     0.36100
N1237       N  0.21435397  0.87383003  0.55984195    -0.38700
N1238       N  0.27419258  0.78143329  0.45790818    -0.38700
N1239       N  0.30636940  0.91564363  0.53873269    -0.38200
N1240       N  0.18321923  0.74089094  0.47456022    -0.38200
C1241       C  0.11924160  0.83082271  0.51438971    -0.04800
C1242       C  0.08993084  0.82314324  0.52738393    -0.01900
C1243       C  0.07480149  0.84045597  0.52048372     0.03000
C1244       C  0.08906393  0.86601002  0.50055308    -0.04800
C1245       C  0.12068019  0.87641489  0.49083131    -0.01900
C1246       C  0.13516496  0.85834551  0.49694231     0.03000
C1247       C  0.07519886  0.79734223  0.54807806     0.37700
C1248       C  0.13885265  0.90551677  0.47417820     0.37700
C1249       C  0.16575074  0.86746331  0.48368150     0.36100
C1250       C  0.04479670  0.83181146  0.53454224     0.36100
N1251       N  0.19009506  0.87497948  0.47299981    -0.38700
N1252       N  0.02093089  0.82458088  0.54600450    -0.38700
N1253       N  0.15374000  0.92874026  0.46108890    -0.38200
N1254       N  0.06342871  0.77676492  0.56451544    -0.38200
C1255       C  0.49834226  0.61046061  0.38993117    -0.04800
C1256       C  0.52549035  0.63120586  0.37287877    -0.01900
C1257       C  0.52890613  0.65959362  0.36130546     0.03000
C1258       C  0.50413895  0.66653739  0.36406065    -0.04800
C1259       C  0.47605145  0.64499207  0.37908164    -0.01900
C1260       C  0.47325827  0.61738569  0.39225996     0.03000
C1261       C  0.55034249  0.62388067  0.36650453     0.37700
C1262       C  0.44965964  0.65091587  0.38052749     0.37700
C1263       C  0.44425290  0.59617674  0.40791860     0.36100
C1264       C  0.55889538  0.68251099  0.34757618     0.36100
N1265       N  0.42105958  0.57942839  0.42044554    -0.38700
N1266       N  0.58285708  0.70075979  0.33681383    -0.38700
N1267       N  0.42862354  0.65567524  0.38153382    -0.38200
N1268       N  0.07009797  0.61825406  0.36053925    -0.38200
C1269       C  0.50612730  0.76954264  0.36733163    -0.04800
C1270       C  0.48093715  0.77582734  0.36417466    -0.01900
C1271       C  0.48096960  0.80078898  0.38004633     0.03000
C1272       C  0.50584632  0.81901698  0.39968911    -0.04800
C1273       C  0.03172959  0.81342901  0.40174794    -0.01900
C1274       C  0.03183437  0.78888770  0.38565605     0.03000
C1275       C  0.45469217  0.75613452  0.34503523     0.37700
C1276       C  0.05962132  0.83441078  0.41880875     0.37700
C1277       C  0.05905467  0.78420045  0.38722195     0.36100
C1278       C  0.45536429  0.80751937  0.37624816     0.36100
N1279       N  0.08079538  0.78055348  0.38828735    -0.38700
N1280       N  0.43509953  0.81312102  0.37301254    -0.38700
N1281       N  0.08240628  0.85119481  0.43177294    -0.38200
N1282       N  0.43368629  0.74027238  0.32984451    -0.38200
C1283       C  0.05027017  0.74342379  0.21872384    -0.04800
C1284       C  0.05057794  0.76820341  0.23501992    -0.01900
C1285       C  0.04321128  0.76407606  0.26439478     0.03000
C1286       C  0.53381361  0.73424245  0.27798032    -0.04800
C1287       C  0.53589248  0.71030998  0.26176146    -0.01900
C1288       C  0.04488287  0.71533640  0.23278537     0.03000
C1289       C  0.05793103  0.79809170  0.22143804     0.37700
C1290       C  0.52767024  0.67945186  0.27384882     0.37700
C1291       C  0.04662702  0.69026469  0.21718625     0.36100
C1292       C  0.04546239  0.79107039  0.28009361     0.36100
N1293       N  0.04802023  0.67024998  0.20488774    -0.38700
N1294       N  0.04737958  0.81277326  0.29236445    -0.38700
N1295       N  0.52110105  0.65465288  0.28297905    -0.38200
N1296       N  0.06330101  0.82175298  0.21062669    -0.38200
C1297       C  0.26391248  0.91882996  0.36813384    -0.04800
C1298       C  0.26109858  0.88954044  0.37635994    -0.01900
C1299       C  0.28594405  0.88953007  0.39167732     0.03000
C1300       C  0.31427673  0.91886624  0.39819418    -0.04800
C1301       C  0.31711444  0.94820602  0.38980120    -0.01900
C1302       C  0.29187889  0.94816336  0.37490127     0.03000
C1303       C  0.23227152  0.85931503  0.36943316     0.37700
C1304       C  0.34635773  0.97835436  0.39571705     0.37700
C1305       C  0.29500664  0.97821857  0.36586128     0.36100
C1306       C  0.28139757  0.85927480  0.40199558     0.36100
N1307       N  0.29760582  0.50223333  0.35857479    -0.38700
N1308       N  0.27719819  0.83498029  0.41034135    -0.38700
N1309       N  0.36977193  0.00233391  0.40044305    -0.38200
N1310       N  0.20930921  0.83526901  0.36383841    -0.38200
C1311       C  0.16493166  0.92387178  0.36717093    -0.04800
C1312       C  0.17328214  0.95094449  0.38461118    -0.01900
C1313       C  0.14918543  0.95457253  0.39826065     0.03000
C1314       C  0.11624867  0.93173532  0.39378684    -0.04800
C1315       C  0.10835343  0.90627105  0.37398484    -0.01900
C1316       C  0.13224964  0.90107926  0.36281738     0.03000
C1317       C  0.20670097  0.97556034  0.38810455     0.37700
C1318       C  0.07597828  0.88582130  0.36334770     0.37700
C1319       C  0.12278577  0.87111996  0.34789238     0.36100
C1320       C  0.15862066  0.98270262  0.41583552     0.36100
N1321       N  0.11516620  0.84714090  0.33626151    -0.38700
N1322       N  0.16627240  0.50525182  0.42977017    -0.38700
N1323       N  0.05057318  0.86979712  0.35397963    -0.38200
N1324       N  0.23333924  0.49529043  0.39087634    -0.38200
C1325       C  0.19941556  0.89108840  0.28008411    -0.04800
C1326       C  0.21846376  0.87999688  0.26666318    -0.01900
C1327       C  0.21488729  0.87216142  0.23735562     0.03000
C1328       C  0.19173519  0.87415566  0.22088578    -0.04800
C1329       C  0.17047965  0.88175144  0.23458779    -0.01900
C1330       C  0.17446127  0.89059588  0.26365500     0.03000
C1331       C  0.24215295  0.87648180  0.28242412     0.37700
C1332       C  0.14570448  0.88294614  0.21833650     0.37700
C1333       C  0.15313003  0.90036945  0.27564846     0.36100
C1334       C  0.23528712  0.86195008  0.22403404     0.36100
N1335       N  0.13591390  0.90814331  0.28471307    -0.38700
N1336       N  0.25142621  0.85364445  0.21349218    -0.38700
N1337       N  0.12625046  0.88434279  0.20535650    -0.38200
N1338       N  0.26118453  0.87364042  0.29469174    -0.38200
C1339       C  0.36095377  0.88181954  0.61266132    -0.04800
C1340       C  0.35789758  0.85656872  0.59471257    -0.01900
C1341       C  0.36860917  0.86258313  0.56607769     0.03000
C1342       C  0.38240590  0.89377930  0.55445391    -0.04800
C1343       C  0.38881721  0.91948682  0.57294233    -0.01900
C1344       C  0.37861588  0.91370290  0.60178569     0.03000
C1345       C  0.34317428  0.82381326  0.60484435     0.37700
C1346       C  0.40664281  0.95216195  0.56233721     0.37700
C1347       C  0.38751498  0.94100279  0.62033382     0.36100
C1348       C  0.36369694  0.83591197  0.54815047     0.36100
N1349       N  0.39480371  0.96281826  0.63514950    -0.38700
N1350       N  0.35985335  0.81462357  0.53397454    -0.38700
N1351       N  0.42111661  0.97825133  0.55396224    -0.38200
N1352       N  0.33203573  0.79743698  0.61215343    -0.38200
C1353       C  0.20085395  0.54858608  0.88736258    -0.04800
C1354       C  0.20070849  0.52542157  0.90573799    -0.01900
C1355       C  0.19453391  0.52549087  0.93516255     0.03000
C1356       C  0.18485311  0.54655840  0.94653281    -0.04800
C1357       C  0.18505474  0.56985016  0.92786699    -0.01900
C1358       C  0.19365486  0.57124276  0.89892926     0.03000
C1359       C  0.20527862  0.50010023  0.89435726     0.37700
C1360       C  0.17528220  0.59217145  0.93744650     0.37700
C1361       C  0.19221828  0.59460844  0.88063631     0.36100
C1362       C  0.19874035  0.50378056  0.95334764     0.36100
N1363       N  0.19086008  0.61318542  0.86621352    -0.38700
N1364       N  0.20240610  0.48650041  0.96762311    -0.38700
N1365       N  0.16750760  0.61006820  0.94466640    -0.38200
N1366       N  0.20836199  0.47951358  0.88546311    -0.38200
C1367       C  0.34321944  0.69440521  0.88419065    -0.04800
C1368       C  0.31884986  0.69538663  0.90000541    -0.01900
C1369       C  0.32309152  0.70354186  0.92937557     0.03000
C1370       C  0.35276283  0.71299416  0.94328450    -0.04800
C1371       C  0.37629712  0.71000211  0.92736532    -0.01900
C1372       C  0.37057047  0.69904216  0.89886719     0.03000
C1373       C  0.28974784  0.68953997  0.88596095     0.37700
C1374       C  0.40766086  0.71973198  0.93893860     0.37700
C1375       C  0.39327838  0.69260695  0.88446464     0.36100
C1376       C  0.29650517  0.70239584  0.94464164     0.36100
N1377       N  0.41124594  0.68729388  0.87307409    -0.38700
N1378       N  0.27498472  0.70124672  0.95643743    -0.38700
N1379       N  0.43302546  0.72771033  0.94741049    -0.38200
N1380       N  0.26654923  0.68499217  0.87484641    -0.38200
C1381       C  0.31927937  0.81339050  0.69996312    -0.04800
C1382       C  0.30065367  0.78147263  0.68988006    -0.01900
C1383       C  0.29675588  0.75534042  0.70661672     0.03000
C1384       C  0.30848798  0.76050556  0.73494771    -0.04800
C1385       C  0.32251179  0.79221440  0.74622737    -0.01900
C1386       C  0.33061672  0.81847579  0.72820958     0.03000
C1387       C  0.28358701  0.77527988  0.66322017     0.37700
C1388       C  0.32728440  0.79837885  0.77656303     0.37700
C1389       C  0.35164215  0.85091608  0.73876731     0.36100
C1390       C  0.27937644  0.72309222  0.69491644     0.36100
N1391       N  0.36854475  0.87668929  0.74724324    -0.38700
N1392       N  0.26553326  0.69739123  0.68545733    -0.38700
N1393       N  0.33025037  0.80354392  0.80075207    -0.38200
N1394       N  0.26922925  0.77013278  0.64231941    -0.38200
C1395       C  0.35807933  0.56796886  0.88330570    -0.04800
C1396       C  0.33177798  0.55480781  0.90200188    -0.01900
C1397       C  0.33610752  0.55212537  0.93138409     0.03000
C1398       C  0.36714151  0.56246105  0.94243704    -0.04800
C1399       C  0.39380984  0.57771580  0.92372115    -0.01900
C1400       C  0.38925455  0.58068143  0.89446220     0.03000
C1401       C  0.30037497  0.54500373  0.89075962     0.37700
C1402       C  0.42603241  0.58893425  0.93390903     0.37700
C1403       C  0.41678378  0.59560905  0.87558250     0.36100
C1404       C  0.30846952  0.03913379  0.95007946     0.36100
N1405       N  0.43881283  0.60765256  0.86063910    -0.38700
N1406       N  0.28630924  0.02870223  0.96486582    -0.38700
N1407       N  0.45184945  0.59802785  0.94178026    -0.38200
N1408       N  0.27575763  0.03793799  0.88112500    -0.38200
C1409       C  0.31748251  0.91419753  0.69592393    -0.04800
C1410       C  0.31794984  0.94010363  0.68132612    -0.01900
C1411       C  0.31722678  0.96513721  0.69661281     0.03000
C1412       C  0.31813091  0.96597857  0.72668040    -0.04800
C1413       C  0.31409525  0.93862651  0.74112173    -0.01900
C1414       C  0.31206585  0.91237465  0.72592537     0.03000
C1415       C  0.31705021  0.94029790  0.65051408     0.37700
C1416       C  0.31222005  0.93713849  0.77195300     0.37700
C1417       C  0.30272740  0.88323561  0.74179567     0.36100
C1418       C  0.31248992  0.48836043  0.68143078     0.36100
N1419       N  0.29444565  0.86013752  0.75495184    -0.38700
N1420       N  0.30775861  0.50624301  0.66924846    -0.38700
N1421       N  0.31042350  0.93537672  0.79647377    -0.38200
N1422       N  0.31612379  0.94054062  0.62593923    -0.38200
C1423       C  0.39276153  0.80467611  0.82166194    -0.04800
C1424       C  0.39363674  0.81504436  0.84997884    -0.01900
C1425       C  0.40986542  0.84810412  0.85623410     0.03000
C1426       C  0.42455563  0.87051058  0.83419369    -0.04800
C1427       C  0.42207979  0.86025145  0.80580066    -0.01900
C1428       C  0.40623436  0.82737668  0.79952717     0.03000
C1429       C  0.37889367  0.79198599  0.87281876     0.37700
C1430       C  0.43574778  0.88340851  0.78288628     0.37700
C1431       C  0.40250194  0.81705744  0.77007985     0.36100
C1432       C  0.41244819  0.85918294  0.88536215     0.36100
N1433       N  0.39919609  0.80923095  0.74648923    -0.38700
N1434       N  0.41469183  0.86819924  0.90854551    -0.38700
N1435       N  0.44612896  0.90118663  0.76409178    -0.38200
N1436       N  0.36709103  0.77388336  0.89124427    -0.38200
C1437       C  0.03030397  0.96392252  0.83787863    -0.04800
C1438       C  0.04076489  0.96965127  0.80934476    -0.01900
C1439       C  0.07267462  0.97954325  0.80278100     0.03000
C1440       C  0.09458440  0.48596407  0.82493532    -0.04800
C1441       C  0.08418833  0.48020636  0.85346849    -0.01900
C1442       C  0.05184683  0.96880032  0.85992399     0.03000
C1443       C  0.01914259  0.96682097  0.78681112     0.37700
C1444       C  0.10654024  0.48508513  0.87602742     0.37700
C1445       C  0.04081135  0.96252237  0.88915648     0.36100
C1446       C  0.08315151  0.98403948  0.77331309     0.36100
N1447       N  0.03206763  0.95760947  0.91250319    -0.38700
N1448       N  0.09139356  0.98742656  0.74982358    -0.38700
N1449       N  0.12411938  0.48858563  0.89413319    -0.38200
N1450       N  0.50247752  0.96545611  0.76865557    -0.38200
C1451       C  0.43667345  0.97653660  0.84328631    -0.04800
C1452       C  0.45325557  0.50623494  0.82867320    -0.01900
C1453       C  0.43661883  0.52118083  0.81923781     0.03000
C1454       C  0.40384203  0.50781400  0.82559854    -0.04800
C1455       C  0.38826558  0.98041125  0.84309691    -0.01900
C1456       C  0.40454107  0.96476235  0.85186747     0.03000
C1457       C  0.48734319  0.52164846  0.82273126     0.37700
C1458       C  0.35572379  0.96876026  0.85273581     0.37700
C1459       C  0.38829230  0.93694125  0.87029740     0.36100
C1460       C  0.45326904  0.54949760  0.80164411     0.36100
N1461       N  0.37532995  0.91477089  0.88499220    -0.38700
N1462       N  0.46762800  0.57193517  0.78758996    -0.38700
N1463       N  0.32984217  0.95954050  0.86056988    -0.38200
N1464       N  0.01461335  0.53425097  0.81844274    -0.38200
C1465       C  0.47658160  0.81610351  0.69154337    -0.04800
C1466       C  0.48302503  0.79611603  0.70879537    -0.01900
C1467       C  0.45789898  0.76949229  0.72317443     0.03000
C1468       C  0.42561546  0.76147135  0.71964051    -0.04800
C1469       C  0.41908359  0.77887928  0.69909264    -0.01900
C1470       C  0.44427073  0.80707377  0.68676939     0.03000
C1471       C  0.01548671  0.80229840  0.71140217     0.37700
C1472       C  0.38657075  0.76816275  0.69001157     0.37700
C1473       C  0.43642676  0.82760289  0.67050530     0.36100
C1474       C  0.46562135  0.74976571  0.74069639     0.36100
N1475       N  0.42991826  0.84387528  0.65778444    -0.38700
N1476       N  0.47192802  0.73406031  0.75451627    -0.38700
N1477       N  0.36086843  0.75969388  0.68218351    -0.38200
N1478       N  0.04133988  0.80713581  0.71349153    -0.38200
C1479       C  0.08683868  0.91104438  0.69685120    -0.04800
C1480       C  0.08779630  0.90900346  0.72703767    -0.01900
C1481       C  0.11579995  0.93035040  0.74226067     0.03000
C1482       C  0.14196763  0.95605283  0.72818759    -0.04800
C1483       C  0.14231512  0.95668668  0.69820454    -0.01900
C1484       C  0.11552277  0.93349353  0.68259193     0.03000
C1485       C  0.05984633  0.88630336  0.74325362     0.37700
C1486       C  0.17061574  0.48095391  0.68336185     0.37700
C1487       C  0.11822232  0.93251559  0.65189979     0.36100
C1488       C  0.11700575  0.92616202  0.77268307     0.36100
N1489       N  0.12061344  0.93167364  0.62746894    -0.38700
N1490       N  0.11766357  0.92197096  0.79680719    -0.38700
N1491       N  0.19317736  0.50022729  0.67146024    -0.38200
N1492       N  0.03776417  0.86846233  0.75655170    -0.38200
C1493       C  0.02011476  0.89187418  0.61013661    -0.04800
C1494       C  0.99703560  0.86874090  0.59105113    -0.01900
C1495       C  0.99589839  0.87675968  0.56242041     0.03000
C1496       C  0.01934736  0.90714375  0.55157051    -0.04800
C1497       C  0.04062808  0.93094457  0.57083599    -0.01900
C1498       C  0.04033549  0.92373333  0.59999798     0.03000
C1499       C  0.97537922  0.83572176  0.59973226     0.37700
C1500       C  0.06294588  0.96312449  0.56068529     0.37700
C1501       C  0.06088468  0.94957656  0.61932513     0.36100
C1502       C  0.47144223  0.85251818  0.54392454     0.36100
N1503       N  0.07725827  0.97037868  0.63459295    -0.38700
N1504       N  0.45181521  0.83309053  0.52941514    -0.38700
N1505       N  0.08067047  0.98881311  0.55261711    -0.38200
N1506       N  0.45810110  0.80927525  0.60623176    -0.38200
C1507       C  0.08303591  0.57158548  0.70322538    -0.04800
C1508       C  0.11323101  0.58068864  0.69091853    -0.01900
C1509       C  0.13812638  0.58172888  0.70746384     0.03000
C1510       C  0.13348920  0.57365303  0.73683827    -0.04800
C1511       C  0.10353689  0.56593918  0.74928887    -0.01900
C1512       C  0.07842669  0.56377290  0.73247508     0.03000
C1513       C  0.11924191  0.58941487  0.66108083     0.37700
C1514       C  0.09780379  0.56035219  0.77963531     0.37700
C1515       C  0.04708476  0.55175616  0.74530942     0.36100
C1516       C  0.16883280  0.59220554  0.69394557     0.36100
N1517       N  0.02195264  0.54210361  0.75519782    -0.38700
N1518       N  0.19326034  0.60070701  0.68299590    -0.38700
N1519       N  0.09301421  0.55616044  0.80380123    -0.38200
N1520       N  0.12412603  0.59614261  0.63727035    -0.38200
C1521       C  0.44057705  0.59342271  0.72520275    -0.04800
C1522       C  0.43330099  0.57634011  0.69929648    -0.01900
C1523       C  0.45655511  0.57200725  0.68529464     0.03000
C1524       C  0.48814322  0.58581611  0.69653328    -0.04800
C1525       C  0.99649431  0.60690181  0.72017886    -0.01900
C1526       C  0.47285672  0.61072563  0.73430966     0.03000
C1527       C  0.40173851  0.56283389  0.68682859     0.37700
C1528       C  0.02950429  0.62550672  0.72964951     0.37700
C1529       C  0.48185890  0.63289461  0.75810917     0.36100
C1530       C  0.44696257  0.55243003  0.65964520     0.36100
N1531       N  0.48901186  0.65043589  0.77717490    -0.38700
N1532       N  0.43916257  0.53713976  0.63904313    -0.38700
N1533       N  0.05586064  0.64051358  0.73715114    -0.38200
N1534       N  0.37694093  0.55265784  0.67624061    -0.38200
C1535       C  0.02696420  0.55853697  0.61127911    -0.04800
C1536       C  0.02510295  0.58163570  0.59459471    -0.01900
C1537       C  0.01746931  0.57590304  0.56565373     0.03000
C1538       C  0.01511036  0.54848365  0.55204635    -0.04800
C1539       C  0.01673009  0.52516026  0.56877322    -0.01900
C1540       C  0.02220608  0.52998396  0.59843370     0.03000
C1541       C  0.03164371  0.61196861  0.60711076     0.37700
C1542       C  0.01005259  0.49513278  0.55583469     0.37700
C1543       C  0.02129400  0.50498370  0.61591492     0.36100
C1544       C  0.01172589  0.59857589  0.55049334     0.36100
N1545       N  0.02022610  0.48497526  0.63005380    -0.38700
N1546       N  0.00659303  0.61658223  0.53905187    -0.38700
N1547       N  0.00407207  0.97104942  0.54529445    -0.38200
N1548       N  0.03683915  0.63610242  0.61700177    -0.38200
C1549       C  0.52954043  0.06322581  0.64249856     0.80700
N1550       N  0.50954203  0.07107368  0.65532425    -0.77600
C1551       C  0.51205437  0.07864570  0.68318523     0.83200
N1552       N  0.53595087  0.07884345  0.69840194    -0.77500
C1553       C  0.55657053  0.07096550  0.68602906     0.83300
N1554       N  0.55301861  0.06296301  0.65787531    -0.79200
C1555       C  0.52388958  0.38253334  0.63987143     0.80700
N1556       N  0.55192954  0.39988670  0.65432482    -0.77600
C1557       C  0.55616034  0.39077174  0.68053036     0.83200
N1558       N  0.53163263  0.36366040  0.69211666    -0.77500
C1559       C  0.50339845  0.34591412  0.67828589     0.83300
N1560       N  0.49985894  0.35567643  0.65226865    -0.79200
C1561       C  0.95101040  0.45581145  0.84594554     0.80700
N1562       N  0.98330593  0.46878144  0.84638449    -0.77600
C1563       C  0.49614989  0.44979193  0.84387436     0.83200
N1564       N  0.97684447  0.41775786  0.84073587    -0.77500
C1565       C  0.94474980  0.40458745  0.84080257     0.83300
N1566       N  0.93186535  0.42353266  0.84275896    -0.79200
O1567       O  0.79594293  0.03839069  0.75632763    -0.84800
O1568       O  0.84395302  0.10152788  0.76027132    -0.81900
C1569       C  0.86582484  0.12516801  0.77367941     0.98600
O1570       O  0.88752339  0.12315259  0.78673447    -0.81900
O1571       O  0.86646097  0.08763103  0.83566188    -0.84600
C1572       C  0.85302578  0.06381905  0.85198589     1.03200
O1573       O  0.83866325  0.03570410  0.84177391    -0.77300
O1574       O  0.79242293  0.02912286  0.80238011    -0.77500
C1575       C  0.78062367  0.03237267  0.77962701     1.03100
O1576       O  0.84303083  0.02301906  0.73427449    -0.84800
O1577       O  0.88901480  0.08727549  0.73480695    -0.81900
C1578       C  0.91417048  0.08918084  0.74453704     0.98600
O1579       O  0.91660799  0.08558659  0.77062772    -0.81900
O1580       O  0.89756475  0.05285997  0.81991264    -0.84500
C1581       C  0.88626923  0.02322569  0.81506208     1.03100
O1582       O  0.85983138  0.00651441  0.80241228    -0.77300
O1583       O  0.80904936  0.49195260  0.76633175    -0.77500
C1584       C  0.82351774  0.99513102  0.74308031     1.03100
Cr1585     Cr  0.84373276  0.06197975  0.74926965     1.93700
Cr1586     Cr  0.88906670  0.08510208  0.80159099     1.93200
Cr1587     Cr  0.82692688  0.01890236  0.80177858     1.39100
O1588       O  0.85333225  0.05570086  0.78430317    -1.22600
O1589       O  0.85694735  0.16446898  0.75270217    -0.84800
O1590       O  0.79654822  0.14958256  0.76229864    -0.81900
C1591       C  0.77424698  0.14640257  0.77807844     0.98600
O1592       O  0.77676975  0.16967693  0.79256167    -0.81900
O1593       O  0.81801427  0.18314320  0.83787160    -0.84600
C1594       C  0.84348181  0.19485960  0.85216916     1.03200
O1595       O  0.87007903  0.21098933  0.83949108    -0.77300
O1596       O  0.87330238  0.17171455  0.79730642    -0.77500
C1597       C  0.86549505  0.15538509  0.77461074     1.03100
O1598       O  0.87061967  0.22810475  0.73342273    -0.84800
O1599       O  0.80892739  0.21081638  0.73974572    -0.81900
C1600       C  0.80949615  0.23452770  0.75189859     0.98600
O1601       O  0.81326092  0.23776813  0.77835976    -0.81900
O1602       O  0.85040108  0.25053417  0.82429853    -0.84500
C1603       C  0.87803376  0.27036730  0.81480385     1.03100
O1604       O  0.89335492  0.26129332  0.79951916    -0.77300
O1605       O  0.90538925  0.22614158  0.76045847    -0.77500
C1606       C  0.89927093  0.23707469  0.73855955     1.03100
Cr1607     Cr  0.83400028  0.18938545  0.74974740     1.93700
Cr1608     Cr  0.81642257  0.20949654  0.80640916     1.93200
Cr1609     Cr  0.88250689  0.21638673  0.79821745     1.39100
O1610       O  0.84387145  0.20459679  0.78489099    -1.22600
O1611       O  0.74537841  0.09260208  0.76472630    -0.84800
O1612       O  0.73719867  0.03342222  0.75746963    -0.81900
C1613       C  0.74866749  0.02889158  0.78010850     0.98600
O1614       O  0.73282030  0.02116547  0.80302581    -0.81900
O1615       O  0.68964703  0.01857050  0.84421208    -0.84600
C1616       C  0.70305890  0.04600828  0.85570938     1.03200
O1617       O  0.71349204  0.07034284  0.84001738    -0.77300
O1618       O  0.72144609  0.10925821  0.79399059    -0.77500
C1619       C  0.74535706  0.11453759  0.77910699     1.03100
O1620       O  0.68256557  0.07225002  0.74213840    -0.84800
O1621       O  0.67175554  0.01186374  0.73782373    -0.81900
C1622       C  0.66604623  0.98444619  0.74472081     0.98600
O1623       O  0.67957135  0.48140116  0.76636057    -0.81900
O1624       O  0.64017857  0.98893475  0.80390122    -0.84500
C1625       C  0.62878685  0.00272488  0.81839247     1.03100
O1626       O  0.64619595  0.03132766  0.82717605    -0.77300
O1627       O  0.65479491  0.06663971  0.78037656    -0.77500
C1628       C  0.65851215  0.07107340  0.75400516     1.03100
Cr1629     Cr  0.70815055  0.05176075  0.75315719     1.93700
Cr1630     Cr  0.68644592  0.00535478  0.80324729     1.93200
Cr1631     Cr  0.68496699  0.06767856  0.80875555     1.39100
O1632       O  0.69339753  0.04200041  0.78833846    -1.22600
C1633       C  0.84551073  0.37501840  0.64208131     0.80700
N1634       N  0.83762785  0.39577966  0.65445066    -0.77600
C1635       C  0.82326240  0.38979013  0.68058228     0.83200
N1636       N  0.81689328  0.36246386  0.69405727    -0.77500
C1637       C  0.82446783  0.34148878  0.68259135     0.83300
N1638       N  0.83891848  0.34793885  0.65665036    -0.79200
C1639       C  0.70571395  0.40331541  0.31060714     0.80700
N1640       N  0.68493744  0.40947197  0.32467087    -0.77600
C1641       C  0.68977265  0.41972325  0.35216304     0.83200
N1642       N  0.71609693  0.42386746  0.36606698    -0.77500
C1643       C  0.73740261  0.41825023  0.35230952     0.83300
N1644       N  0.73203873  0.40797456  0.32487907    -0.79200
C1645       C  0.02194790  0.22803787  0.30853743     0.80700
N1646       N  0.01647012  0.24909012  0.32316177    -0.77600
C1647       C  0.00682903  0.24379113  0.35077430     0.83200
N1648       N  0.00259896  0.21706602  0.36419890    -0.77500
C1649       C  0.00732292  0.19546018  0.34977940     0.83300
N1650       N  0.01710181  0.20135980  0.32230821    -0.79200
C1651       C  0.63183288  0.30881416  0.51740741     0.80700
N1652       N  0.66378096  0.32038257  0.51778532    -0.77600
C1653       C  0.67551475  0.30031402  0.51750700     0.83200
N1654       N  0.65468931  0.26816814  0.51681120    -0.77500
C1655       C  0.62266487  0.25624066  0.51613521     0.83300
N1656       N  0.61137491  0.27664378  0.51623610    -0.79200
O1657       O  0.98546733  0.41126632  0.43269461    -0.84800
O1658       O  0.54501455  0.46025645  0.42334018    -0.81900
C1659       C  0.54972503  0.47641193  0.44599229     0.98600
O1660       O  0.55785855  0.46864451  0.46853955    -0.81900
O1661       O  0.55325824  0.42648089  0.51043605    -0.84600
C1662       C  0.52483176  0.41165254  0.52013274     1.03200
O1663       O  0.50178733  0.39647394  0.50324802    -0.77300
O1664       O  0.96652263  0.36577553  0.45552307    -0.77500
C1665       C  0.96263421  0.38736518  0.44452867     1.03100
O1666       O  0.00057281  0.36525469  0.40828201    -0.84800
O1667       O  0.56156100  0.41343188  0.40374379    -0.81900
C1668       C  0.59002637  0.43219173  0.41090189     0.98600
O1669       O  0.59554939  0.44958030  0.43298222    -0.81900
O1670       O  0.58462516  0.40493372  0.47316924    -0.84500
C1671       C  0.57079111  0.38072653  0.48896937     1.03100
O1672       O  0.54133641  0.36880029  0.49463094    -0.77300
O1673       O  0.01143313  0.34404065  0.44434216    -0.77500
C1674       C  0.00557183  0.34391746  0.41830808     1.03100
Cr1675     Cr  0.52391273  0.41227965  0.41944563     1.93700
Cr1676     Cr  0.57018594  0.43570819  0.47001586     1.93200
Cr1677     Cr  0.00696374  0.37123851  0.47297674     1.39100
O1678       O  0.53363909  0.40646109  0.45417942    -1.22600
O1679       O  0.52273265  0.50246609  0.43117077    -0.84800
O1680       O  0.97102496  0.50984568  0.42233275    -0.81900
C1681       C  0.95364554  0.50052014  0.44469209     0.98600
O1682       O  0.96150988  0.01814297  0.46640766    -0.81900
O1683       O  0.50080507  0.05922899  0.50718658    -0.84600
C1684       C  0.51413837  0.04664038  0.52036964     1.03200
O1685       O  0.53048075  0.03745281  0.50678107    -0.77300
O1686       O  0.56224657  0.02820079  0.46160320    -0.77500
C1687       C  0.54485459  0.50394109  0.44614899     1.03100
O1688       O  0.56653702  0.06539584  0.40861287    -0.84800
O1689       O  0.01768381  0.07528294  0.40142816    -0.81900
C1690       C  0.99822566  0.08415681  0.40720996     0.98600
O1691       O  0.98019178  0.07186276  0.42852470    -0.81900
O1692       O  0.52535528  0.11041567  0.46831573    -0.84500
C1693       C  0.54938002  0.12176581  0.48455970     1.03100
O1694       O  0.56019365  0.10415096  0.49247747    -0.77300
O1695       O  0.58796127  0.09476607  0.44671837    -0.77500
C1696       C  0.58921864  0.09015899  0.42055666     1.03100
Cr1697     Cr  0.51949167  0.03937078  0.41864511     1.93700
Cr1698     Cr  0.99414586  0.06395633  0.46636630     1.93200
Cr1699     Cr  0.55738803  0.06499627  0.47499884     1.39100
O1700       O  0.52369971  0.05566927  0.45340685    -1.22600
O1701       O  0.91257194  0.45221250  0.42361551    -0.84800
O1702       O  0.93000380  0.40765972  0.43255576    -0.81900
C1703       C  0.93165450  0.38541327  0.44470530     0.98600
O1704       O  0.90738673  0.36211151  0.45646434    -0.81900
O1705       O  0.89299380  0.38303584  0.50663462    -0.84600
C1706       C  0.88405680  0.39804320  0.52266941     1.03200
O1707       O  0.87196553  0.41333676  0.51192660    -0.77300
O1708       O  0.91007206  0.45787050  0.46960784    -0.77500
C1709       C  0.92399991  0.46869105  0.44600740     1.03100
O1710       O  0.85026555  0.40021566  0.40554383    -0.84800
O1711       O  0.87285350  0.35883910  0.40663899    -0.81900
C1712       C  0.84759592  0.33430282  0.41504430     0.98600
O1713       O  0.83977356  0.33204604  0.44083860    -0.81900
O1714       O  0.82702093  0.35066852  0.49130950    -0.84500
C1715       C  0.80909999  0.36214676  0.48735299     1.03100
O1716       O  0.81912495  0.38876118  0.47510180    -0.77300
O1717       O  0.85277072  0.43584008  0.43573383    -0.77500
C1718       C  0.84049183  0.41841052  0.41390239     1.03100
Cr1719     Cr  0.89012098  0.40409344  0.41988675     1.93700
Cr1720     Cr  0.86760073  0.35978514  0.47225789     1.93200
Cr1721     Cr  0.86471045  0.42221504  0.47179680     1.39100
O1722       O  0.87436377  0.39532547  0.45500749    -1.22600
C1723       C  0.70765145  0.21794841  0.30761394     0.80700
N1724       N  0.73623554  0.23962465  0.31963841    -0.77600
C1725       C  0.74286641  0.23626387  0.34715410     0.83200
N1726       N  0.72016716  0.21087641  0.36228690    -0.77500
C1727       C  0.69185212  0.18868389  0.35042633     0.83300
N1728       N  0.68567313  0.19235096  0.32304112    -0.79200
C1729       C  0.87159008  0.05686958  0.97309793     0.80700
N1730       N  0.84934638  0.02953987  0.98652569    -0.77600
C1731       C  0.85310457  0.02444067  0.01427437     0.83200
N1732       N  0.87911766  0.04685574  0.02880600    -0.77500
C1733       C  0.90168856  0.07397389  0.01566281     0.83300
N1734       N  0.89766893  0.07912736  0.98799616    -0.79200
C1735       C  0.85926919  0.22578981  0.97379908     0.80700
N1736       N  0.83851762  0.23198954  0.98826935    -0.77600
C1737       C  0.84467917  0.24323687  0.01557005     0.83200
N1738       N  0.87204547  0.24855956  0.02833894    -0.77500
C1739       C  0.89300439  0.24258790  0.01460248     0.83300
N1740       N  0.88627794  0.23123571  0.98750430    -0.79200
C1741       C  0.78645867  0.12894759  0.18521832     0.80700
N1742       N  0.81842321  0.14967561  0.18775925    -0.77600
C1743       C  0.83913065  0.13877086  0.18954579     0.83200
N1744       N  0.82726606  0.10662160  0.18896752    -0.77500
C1745       C  0.79534526  0.08565026  0.18684194     0.83300
N1746       N  0.77506939  0.09696681  0.18464766    -0.79200
O1747       O  0.58055611  0.28701982  0.08886211    -0.84800
O1748       O  0.59115932  0.23831991  0.09857865    -0.81900
C1749       C  0.59026441  0.21567392  0.11225033     0.98600
O1750       O  0.56538721  0.19611525  0.12609100    -0.81900
O1751       O  0.55814451  0.22835083  0.17188449    -0.84600
C1752       C  0.54925559  0.24406894  0.18689535     1.03200
O1753       O  0.53471542  0.25649940  0.17522789    -0.77300
O1754       O  0.57327840  0.29694140  0.13307584    -0.77500
C1755       C  0.59062199  0.30412482  0.11127275     1.03100
O1756       O  0.51581000  0.23843025  0.06896729    -0.84800
O1757       O  0.52926985  0.19164191  0.07619887    -0.81900
C1758       C  0.50309053  0.17017932  0.08697759     0.98600
O1759       O  0.49768416  0.17079175  0.11310703    -0.81900
O1760       O  0.99058975  0.19743969  0.16155164    -0.84500
C1761       C  0.97238893  0.20799789  0.15490735     1.03100
O1762       O  0.98223088  0.23066048  0.13733557    -0.77300
O1763       O  0.51755443  0.27521918  0.09642514    -0.77500
C1764       C  0.50576657  0.25698582  0.07493965     1.03100
Cr1765     Cr  0.55302155  0.23879584  0.08576111     1.93700
Cr1766     Cr  0.52882007  0.20059380  0.14142781     1.93200
Cr1767     Cr  0.52795266  0.26294564  0.13425421     1.39100
O1768       O  0.53702094  0.23423657  0.12056097    -1.22600
O1769       O  0.70536260  0.34382979  0.09036255    -0.84800
O1770       O  0.64482447  0.33271994  0.09751826    -0.81900
C1771       C  0.62306952  0.33244314  0.11231301     0.98600
O1772       O  0.62888720  0.35561648  0.12871827    -0.81900
O1773       O  0.66890431  0.36423240  0.17403786    -0.84600
C1774       C  0.69363815  0.37445520  0.18911920     1.03200
O1775       O  0.72084798  0.38964002  0.17741310    -0.77300
O1776       O  0.72132433  0.34995084  0.13503473    -0.77500
C1777       C  0.71203533  0.33339706  0.11258680     1.03100
O1778       O  0.72374973  0.40969440  0.07180671    -0.84800
O1779       O  0.66298962  0.39551275  0.07749273    -0.81900
C1780       C  0.66279899  0.41856621  0.09011236     0.98600
O1781       O  0.66857153  0.42273302  0.11630933    -0.81900
O1782       O  0.70546978  0.43244116  0.16259492    -0.84500
C1783       C  0.73430580  0.45132186  0.15511298     1.03100
O1784       O  0.74790051  0.44122073  0.13878408    -0.77300
O1785       O  0.75727170  0.40504920  0.09881605    -0.77500
C1786       C  0.75205279  0.41829194  0.07814529     1.03100
Cr1787     Cr  0.68536432  0.37152339  0.08699933     1.93700
Cr1788     Cr  0.66980552  0.39293181  0.14371327     1.93200
Cr1789     Cr  0.73377036  0.39540749  0.13628394     1.39100
O1790       O  0.69582994  0.38616515  0.12234000    -1.22600
O1791       O  0.63629816  0.22093065  0.08950500    -0.84800
O1792       O  0.68865601  0.28062760  0.09546503    -0.81900
C1793       C  0.70849011  0.30138021  0.11237658     0.98600
O1794       O  0.72454520  0.29498926  0.12950478    -0.81900
O1795       O  0.69661256  0.25212601  0.17508831    -0.84600
C1796       C  0.68094842  0.22561053  0.18798971     1.03200
O1797       O  0.66641400  0.20014786  0.17368686    -0.77300
O1798       O  0.62590591  0.20204298  0.13336905    -0.77500
C1799       C  0.61882096  0.21247082  0.11173771     1.03100
O1800       O  0.68044891  0.20031811  0.06784729    -0.84800
O1801       O  0.72984325  0.25932845  0.07258442    -0.81900
C1802       C  0.75296726  0.25938492  0.08485972     0.98600
O1803       O  0.75308798  0.25748415  0.11151215    -0.81900
O1804       O  0.72695178  0.21818783  0.15602537    -0.84500
C1805       C  0.71547245  0.18914059  0.14870043     1.03100
O1806       O  0.69026367  0.17495592  0.13368923    -0.77300
O1807       O  0.64271964  0.16707715  0.09532879    -0.77500
C1808       C  0.65955847  0.17202509  0.07347156     1.03100
Cr1809     Cr  0.68388427  0.23923140  0.08444521     1.93700
Cr1810     Cr  0.72233312  0.25397310  0.14098648     1.93200
Cr1811     Cr  0.65875163  0.18956715  0.13273556     1.39100
O1812       O  0.68834314  0.22823407  0.11959946    -1.22600
C1813       C  0.67381731  0.04376845  0.97719085     0.80700
N1814       N  0.66789900  0.01826796  0.99370774    -0.77600
C1815       C  0.65789359  0.01592821  0.02116333     0.83200
N1816       N  0.65351864  0.03941819  0.03204140    -0.77500
C1817       C  0.65951543  0.06511363  0.01614836     0.83300
N1818       N  0.66966981  0.06702379  0.98897630    -0.79200
C1819       C  0.65643388  0.14476297  0.05545780    -0.04800
C1820       C  0.63113032  0.11263528  0.05992502    -0.01900
C1821       C  0.63170578  0.08668472  0.04659852     0.03000
C1822       C  0.65772331  0.09230647  0.02901442    -0.04800
C1823       C  0.68242892  0.12421103  0.02385545    -0.01900
C1824       C  0.68089021  0.15018922  0.03557408     0.03000
C1825       C  0.60392993  0.10584679  0.07774896     0.37700
C1826       C  0.71099216  0.13060118  0.00822310     0.37700
C1827       C  0.70479872  0.18231504  0.02653557     0.36100
C1828       C  0.60535110  0.05411214  0.05105182     0.36100
N1829       N  0.72369279  0.20764659  0.01856439    -0.38700
N1830       N  0.58435260  0.02813832  0.05468419    -0.38700
N1831       N  0.73390087  0.13572918  0.99609900    -0.38200
N1832       N  0.58215511  0.10028454  0.09189607    -0.38200
C1833       C  0.65490861  0.48965582  0.03996027    -0.04800
C1834       C  0.66508799  0.49615128  0.06866680    -0.01900
C1835       C  0.66581839  0.47250865  0.08550878     0.03000
C1836       C  0.65695393  0.44185428  0.07381411    -0.04800
C1837       C  0.64408972  0.43459148  0.04582924    -0.01900
C1838       C  0.64299296  0.45826176  0.02918423     0.03000
C1839       C  0.67587086  0.02760317  0.08106779     0.37700
C1840       C  0.63125971  0.40260468  0.03395305     0.37700
C1841       C  0.62850484  0.44981662  0.00113913     0.36100
C1842       C  0.67688809  0.48091676  0.11470070     0.36100
N1843       N  0.61683486  0.44302654  0.97884643    -0.38700
N1844       N  0.68578950  0.48810498  0.13784607    -0.38700
N1845       N  0.62098843  0.37713278  0.02436336    -0.38200
N1846       N  0.68401332  0.05253902  0.09098425    -0.38200
C1847       C  0.76529333  0.14147035  0.17779471    -0.04800
C1848       C  0.76638954  0.16646153  0.19398179    -0.01900
C1849       C  0.75034105  0.18204876  0.18457776     0.03000
C1850       C  0.73171263  0.17183768  0.15912926    -0.04800
C1851       C  0.72988537  0.14585299  0.14347721    -0.01900
C1852       C  0.74667003  0.13087822  0.15273001     0.03000
C1853       C  0.78405739  0.17609110  0.22059556     0.37700
C1854       C  0.71275370  0.13572206  0.11670520     0.37700
C1855       C  0.74632478  0.10575938  0.13543873     0.36100
C1856       C  0.75443080  0.20935222  0.20104546     0.36100
N1857       N  0.74644115  0.08576459  0.12195524    -0.38700
N1858       N  0.75852243  0.23142264  0.21416838    -0.38700
N1859       N  0.69933164  0.12741429  0.09524841    -0.38200
N1860       N  0.79803035  0.18366877  0.24183483    -0.38200
C1861       C  0.75224227  0.48529522  0.16600381    -0.04800
C1862       C  0.78286376  0.00806987  0.15472618    -0.01900
C1863       C  0.79761482  0.04075456  0.16234074     0.03000
C1864       C  0.78283656  0.05102330  0.18221961    -0.04800
C1865       C  0.75421423  0.02826037  0.19562377    -0.01900
C1866       C  0.73877991  0.49571346  0.18750390     0.03000
C1867       C  0.79981666  0.49869604  0.13508331     0.37700
C1868       C  0.74052769  0.03839948  0.21801602     0.37700
C1869       C  0.70890650  0.47361776  0.20163717     0.36100
C1870       C  0.82729456  0.06395818  0.14837185     0.36100
N1871       N  0.68503016  0.45680182  0.21320070    -0.38700
N1872       N  0.85091910  0.08236649  0.13722564    -0.38700
N1873       N  0.72961997  0.04643764  0.23583587    -0.38200
N1874       N  0.81393279  0.49174065  0.11966869    -0.38200
C1875       C  0.87438608  0.16107321  0.18620276    -0.04800
C1876       C  0.89609981  0.15266587  0.19741229    -0.01900
C1877       C  0.92840955  0.16893644  0.18853023     0.03000
C1878       C  0.93954279  0.19386371  0.16794449    -0.04800
C1879       C  0.91861663  0.20491332  0.15977293    -0.01900
C1880       C  0.88640422  0.18866572  0.16878140     0.03000
C1881       C  0.88526489  0.12704751  0.21821520     0.37700
C1882       C  0.92940769  0.23278714  0.14162017     0.37700
C1883       C  0.86564877  0.20004290  0.15876132     0.36100
C1884       C  0.94974195  0.15959117  0.20104628     0.36100
N1885       N  0.84936970  0.20939584  0.15079990    -0.38700
N1886       N  0.96644141  0.15192198  0.21128627    -0.38700
N1887       N  0.93746154  0.25491870  0.12719583    -0.38200
N1888       N  0.87672458  0.10656694  0.23467834    -0.38200
C1889       C  0.82107741  0.24775092  0.03265610    -0.04800
C1890       C  0.80589656  0.26373243  0.02157617    -0.01900
C1891       C  0.78540190  0.26958542  0.03897785     0.03000
C1892       C  0.77913455  0.25890194  0.06765049    -0.04800
C1893       C  0.79556378  0.24400855  0.07881916    -0.01900
C1894       C  0.81521924  0.23750665  0.06128393     0.03000
C1895       C  0.81137492  0.27438008  0.99225467     0.37700
C1896       C  0.79312931  0.23538764  0.10859334     0.37700
C1897       C  0.82819605  0.21860849  0.07267045     0.36100
C1898       C  0.77164585  0.28758097  0.02739734     0.36100
N1899       N  0.83843624  0.20348910  0.08168439    -0.38700
N1900       N  0.76083015  0.30208196  0.01815015    -0.38700
N1901       N  0.79244043  0.22900826  0.13234585    -0.38200
N1902       N  0.81544967  0.28267255  0.96879523    -0.38200
C1903       C  0.92248804  0.24723439  0.02945317    -0.04800
C1904       C  0.93308138  0.22529091  0.02486674    -0.01900
C1905       C  0.96196299  0.23061869  0.03705573     0.03000
C1906       C  0.97897463  0.25576789  0.05733829    -0.04800
C1907       C  0.96809098  0.27765252  0.06208146    -0.01900
C1908       C  0.94038494  0.27358610  0.04808269     0.03000
C1909       C  0.91318725  0.19569236  0.00911741     0.37700
C1910       C  0.98561115  0.30509598  0.08083164     0.37700
C1911       C  0.93045269  0.29684173  0.05303375     0.36100
C1912       C  0.97409002  0.21026159  0.02748127     0.36100
N1913       N  0.92247604  0.31530940  0.05716854    -0.38700
N1914       N  0.98365633  0.19421270  0.01911449    -0.38700
N1915       N  0.99940539  0.32701697  0.09579978    -0.38200
N1916       N  0.89730770  0.17194110  0.99683994    -0.38200
C1917       C  0.82714661  0.49668672  0.02977567    -0.04800
C1918       C  0.82823978  0.46841769  0.03403599    -0.01900
C1919       C  0.80392813  0.44262673  0.04994194     0.03000
C1920       C  0.77865994  0.44524644  0.06201054    -0.04800
C1921       C  0.77824672  0.47405831  0.05821724    -0.01900
C1922       C  0.80203617  0.49936294  0.04184460     0.03000
C1923       C  0.85432495  0.46590191  0.02184834     0.37700
C1924       C  0.75459586  0.47877263  0.07277679     0.37700
C1925       C  0.80086438  0.52845228  0.03771931     0.36100
C1926       C  0.80449446  0.41318561  0.05323236     0.36100
N1927       N  0.79969689  0.55149508  0.03437866    -0.38700
N1928       N  0.80490359  0.38963870  0.05578672    -0.38700
N1929       N  0.73634705  0.48317122  0.08474247    -0.38200
N1930       N  0.87522298  0.46405773  0.01205905    -0.38200
C1931       C  0.97752745  0.14517244  0.06854902    -0.04800
C1932       C  0.94657911  0.14135348  0.06886661    -0.01900
C1933       C  0.92228153  0.11872715  0.05089493     0.03000
C1934       C  0.92837103  0.09933809  0.03264056    -0.04800
C1935       C  0.95927596  0.10334401  0.03179298    -0.01900
C1936       C  0.98389971  0.12637564  0.04956626     0.03000
C1937       C  0.93990398  0.16205611  0.08624547     0.37700
C1938       C  0.96554017  0.08342147  0.01293241     0.37700
C1939       C  0.51552057  0.13020023  0.04877557     0.36100
C1940       C  0.89108684  0.11603080  0.05060400     0.36100
N1941       N  0.54078373  0.13330559  0.04815412    -0.38700
N1942       N  0.86638393  0.11420870  0.05031446    -0.38700
N1943       N  0.97049922  0.06747681  0.99787951    -0.38200
N1944       N  0.93370300  0.17837392  0.09941630    -0.38200
C1945       C  0.70068616  0.22078462  0.27730375    -0.04800
C1946       C  0.69550324  0.19613340  0.25827527    -0.01900
C1947       C  0.68500081  0.19578693  0.23037234     0.03000
C1948       C  0.68386440  0.22268435  0.21956984    -0.04800
C1949       C  0.68867930  0.24730219  0.23881293    -0.01900
C1950       C  0.69660572  0.24612717  0.26767422     0.03000
C1951       C  0.70358853  0.17229151  0.26660420     0.37700
C1952       C  0.68263246  0.27217936  0.22950683     0.37700
C1953       C  0.69985932  0.27058257  0.28754138     0.36100
C1954       C  0.67569237  0.16729268  0.21322739     0.36100
N1955       N  0.70232394  0.29010235  0.30336089    -0.38700
N1956       N  0.66785662  0.14414440  0.20011625    -0.38700
N1957       N  0.67693617  0.29144234  0.22201620    -0.38200
N1958       N  0.71095961  0.15379525  0.27249002    -0.38200
C1959       C  0.77381140  0.26074147  0.36150581    -0.04800
C1960       C  0.78532373  0.25216241  0.38576959    -0.01900
C1961       C  0.81101342  0.27596058  0.40211276     0.03000
C1962       C  0.82610421  0.30860951  0.39442639    -0.04800
C1963       C  0.81793502  0.31667849  0.36815317    -0.01900
C1964       C  0.79158893  0.29319555  0.35215345     0.03000
C1965       C  0.77128952  0.21880065  0.39412059     0.37700
C1966       C  0.83577628  0.34945884  0.35774465     0.37700
C1967       C  0.78251482  0.30343323  0.32671416     0.36100
C1968       C  0.82252887  0.26674760  0.42666007     0.36100
N1969       N  0.77588430  0.31219711  0.30643527    -0.38700
N1970       N  0.83179275  0.25949480  0.44621942    -0.38700
N1971       N  0.84989862  0.37533368  0.34884982    -0.38200
N1972       N  0.76022241  0.19227494  0.40098452    -0.38200
C1973       C  0.66651623  0.16298391  0.36851651    -0.04800
C1974       C  0.65649910  0.17177620  0.39333135    -0.01900
C1975       C  0.63258812  0.14809495  0.41092147     0.03000
C1976       C  0.61735431  0.11492878  0.40358181    -0.04800
C1977       C  0.62825380  0.10615828  0.37909960    -0.01900
C1978       C  0.65251078  0.13003575  0.36162004     0.03000
C1979       C  0.66997922  0.20560381  0.40026914     0.37700
C1980       C  0.61552910  0.07247997  0.37241463     0.37700
C1981       C  0.66350661  0.12031623  0.33700915     0.36100
C1982       C  0.62410452  0.15878147  0.43648600     0.36100
N1983       N  0.67171027  0.11151610  0.31765014    -0.38700
N1984       N  0.61884209  0.16864513  0.45689608    -0.38700
N1985       N  0.60550139  0.04560639  0.36721880    -0.38200
N1986       N  0.68072758  0.23255404  0.40561861    -0.38200
C1987       C  0.60080562  0.22167529  0.51059651    -0.04800
C1988       C  0.57949312  0.21175391  0.48736865    -0.01900
C1989       C  0.56122148  0.17902510  0.47996687     0.03000
C1990       C  0.56508726  0.15581502  0.49496116    -0.04800
C1991       C  0.58582093  0.16602751  0.51905008    -0.01900
C1992       C  0.60319172  0.19870416  0.52687521     0.03000
C1993       C  0.57785427  0.23541540  0.46964302     0.37700
C1994       C  0.59011887  0.14347509  0.53594800     0.37700
C1995       C  0.62372878  0.20879957  0.55180227     0.36100
C1996       C  0.53966324  0.17017370  0.45596143     0.36100
N1997       N  0.64007772  0.21687565  0.57165955    -0.38700
N1998       N  0.52251398  0.16400091  0.43688621    -0.38700
N1999       N  0.59402790  0.12585314  0.54946204    -0.38200
N2000       N  0.57659215  0.25417395  0.45541703    -0.38200
C2001       C  0.71054437  0.31378090  0.51351226    -0.04800
C2002       C  0.72196805  0.29756732  0.49624093    -0.01900
C2003       C  0.75465206  0.31275827  0.48905816     0.03000
C2004       C  0.77593980  0.34450921  0.49807356    -0.04800
C2005       C  0.76530893  0.35979089  0.51693610    -0.01900
C2006       C  0.73280194  0.34451370  0.52475998     0.03000
C2007       C  0.70028641  0.26602284  0.48422173     0.37700
C2008       C  0.78811843  0.39094798  0.52897666     0.37700
C2009       C  0.72252095  0.36073255  0.54437579     0.36100
C2010       C  0.76595455  0.29578791  0.47160379     0.36100
N2011       N  0.71435410  0.37382933  0.55984259    -0.38700
N2012       N  0.77419226  0.28143339  0.45790753    -0.38700
N2013       N  0.80636969  0.41564318  0.53873321    -0.38200
N2014       N  0.68321857  0.24089193  0.47455833    -0.38200
C2015       C  0.61924191  0.33082318  0.51438941    -0.04800
C2016       C  0.58993116  0.32314382  0.52738407    -0.01900
C2017       C  0.57480213  0.34045672  0.52048385     0.03000
C2018       C  0.58906407  0.36601030  0.50055304    -0.04800
C2019       C  0.62068038  0.37641526  0.49083099    -0.01900
C2020       C  0.63516503  0.35834570  0.49694191     0.03000
C2021       C  0.57519953  0.29734309  0.54807831     0.37700
C2022       C  0.63885267  0.40551690  0.47417798     0.37700
C2023       C  0.66575078  0.36746332  0.48368084     0.36100
C2024       C  0.54479746  0.33181257  0.53454303     0.36100
N2025       N  0.69009469  0.37497936  0.47299903    -0.38700
N2026       N  0.52093213  0.32458246  0.54600570    -0.38700
N2027       N  0.65374006  0.42874059  0.46108865    -0.38200
N2028       N  0.56342948  0.27676581  0.56451601    -0.38200
C2029       C  0.99834189  0.11046033  0.38993075    -0.04800
C2030       C  0.02549026  0.13120559  0.37287844    -0.01900
C2031       C  0.02890579  0.15959336  0.36130513     0.03000
C2032       C  0.00413889  0.16653725  0.36406030    -0.04800
C2033       C  0.97605108  0.14499175  0.37908125    -0.01900
C2034       C  0.97325805  0.11738547  0.39225942     0.03000
C2035       C  0.05034248  0.12388070  0.36650459     0.37700
C2036       C  0.94965956  0.15091559  0.38052699     0.37700
C2037       C  0.94425234  0.09617623  0.40791786     0.36100
C2038       C  0.05889535  0.18251083  0.34757584     0.36100
N2039       N  0.92105905  0.07942784  0.42044450    -0.38700
N2040       N  0.08285681  0.20075945  0.33681344    -0.38700
N2041       N  0.92862331  0.15567506  0.38153326    -0.38200
N2042       N  0.57009708  0.11825332  0.36053848    -0.38200
C2043       C  0.00612665  0.26954225  0.36733127    -0.04800
C2044       C  0.98093629  0.27582658  0.36417471    -0.01900
C2045       C  0.98096884  0.30078836  0.38004627     0.03000
C2046       C  0.00584594  0.31901675  0.39968867    -0.04800
C2047       C  0.53172918  0.31342885  0.40174781    -0.01900
C2048       C  0.53183394  0.28888765  0.38565596     0.03000
C2049       C  0.95469110  0.25613355  0.34503549     0.37700
C2050       C  0.55962099  0.33441064  0.41880854     0.37700
C2051       C  0.55905427  0.28420039  0.38722170     0.36100
C2052       C  0.95536327  0.30751836  0.37624856     0.36100
N2053       N  0.58079508  0.28055351  0.38828694    -0.38700
N2054       N  0.93509825  0.31311978  0.37301337    -0.38700
N2055       N  0.58240606  0.35119473  0.43177277    -0.38200
N2056       N  0.93368498  0.24027119  0.32984520    -0.38200
C2057       C  0.55027029  0.24342405  0.21872393    -0.04800
C2058       C  0.55057796  0.26820363  0.23502005    -0.01900
C2059       C  0.54321139  0.26407636  0.26439484     0.03000
C2060       C  0.03381357  0.23424241  0.27798016    -0.04800
C2061       C  0.03589200  0.21030985  0.26176130    -0.01900
C2062       C  0.54488324  0.21533676  0.23278540     0.03000
C2063       C  0.55793120  0.29809209  0.22143812     0.37700
C2064       C  0.02766870  0.17945122  0.27384824     0.37700
C2065       C  0.54662768  0.19026524  0.21718639     0.36100
C2066       C  0.54546277  0.29107065  0.28009382     0.36100
N2067       N  0.54802116  0.17025066  0.20488784    -0.38700
N2068       N  0.54738009  0.31277359  0.29236484    -0.38700
N2069       N  0.02109876  0.15465202  0.28297825    -0.38200
N2070       N  0.56330119  0.32175329  0.21062690    -0.38200
C2071       C  0.76391228  0.41882984  0.36813386    -0.04800
C2072       C  0.76109847  0.38954030  0.37635968    -0.01900
C2073       C  0.78594395  0.38952985  0.39167692     0.03000
C2074       C  0.81427651  0.41886590  0.39819399    -0.04800
C2075       C  0.81711416  0.44820583  0.38980156    -0.01900
C2076       C  0.79187857  0.44816328  0.37490167     0.03000
C2077       C  0.73227141  0.35931490  0.36943272     0.37700
C2078       C  0.84635718  0.47835416  0.39571780     0.37700
C2079       C  0.79500615  0.47821856  0.36586225     0.36100
C2080       C  0.78139749  0.35927440  0.40199481     0.36100
N2081       N  0.79760617  0.00223327  0.35857456    -0.38700
N2082       N  0.77719809  0.33497982  0.41034034    -0.38700
N2083       N  0.86977117  0.50233366  0.40044413    -0.38200
N2084       N  0.70930902  0.33526891  0.36383794    -0.38200
C2085       C  0.66493146  0.42387165  0.36717093    -0.04800
C2086       C  0.67328206  0.45094437  0.38461145    -0.01900
C2087       C  0.64918527  0.45457229  0.39826071     0.03000
C2088       C  0.61624859  0.43173532  0.39378693    -0.04800
C2089       C  0.60835315  0.40627096  0.37398476    -0.01900
C2090       C  0.63224965  0.40107939  0.36281726     0.03000
C2091       C  0.70670075  0.47555987  0.38810498     0.37700
C2092       C  0.57597822  0.38582130  0.36334776     0.37700
C2093       C  0.62278562  0.37112001  0.34789202     0.36100
C2094       C  0.65862052  0.48270250  0.41583574     0.36100
N2095       N  0.61516616  0.34714126  0.33626094    -0.38700
N2096       N  0.66627273  0.00525129  0.42977120    -0.38700
N2097       N  0.55057298  0.36979707  0.35397959    -0.38200
N2098       N  0.73333933  0.99528981  0.39087716    -0.38200
C2099       C  0.69941579  0.39108895  0.28008394    -0.04800
C2100       C  0.71846393  0.37999753  0.26666295    -0.01900
C2101       C  0.71488727  0.37216182  0.23735541     0.03000
C2102       C  0.69173506  0.37415602  0.22088568    -0.04800
C2103       C  0.67047969  0.38175191  0.23458777    -0.01900
C2104       C  0.67446139  0.39059653  0.26365487     0.03000
C2105       C  0.74215351  0.37648276  0.28242384     0.37700
C2106       C  0.64570437  0.38294662  0.21833643     0.37700
C2107       C  0.65313054  0.40037039  0.27564831     0.36100
C2108       C  0.73528705  0.36195057  0.22403386     0.36100
N2109       N  0.63591448  0.40814454  0.28471290    -0.38700
N2110       N  0.75142620  0.35364481  0.21349190    -0.38700
N2111       N  0.62625051  0.38434329  0.20535655    -0.38200
N2112       N  0.76118522  0.37364169  0.29469122    -0.38200
C2113       C  0.86095340  0.38181926  0.61266112    -0.04800
C2114       C  0.85789727  0.35656842  0.59471238    -0.01900
C2115       C  0.86860893  0.36258294  0.56607756     0.03000
C2116       C  0.88240573  0.39377907  0.55445374    -0.04800
C2117       C  0.88881695  0.41948652  0.57294216    -0.01900
C2118       C  0.87861553  0.41370270  0.60178552     0.03000
C2119       C  0.84317399  0.32381296  0.60484419     0.37700
C2120       C  0.90664267  0.45216182  0.56233710     0.37700
C2121       C  0.88751433  0.44100245  0.62033365     0.36100
C2122       C  0.86369674  0.33591177  0.54815037     0.36100
N2123       N  0.89480295  0.46281795  0.63514926    -0.38700
N2124       N  0.85985322  0.31462332  0.53397435    -0.38700
N2125       N  0.92111666  0.47825114  0.55396220    -0.38200
N2126       N  0.83203549  0.29743687  0.61215317    -0.38200
C2127       C  0.70085419  0.04858604  0.88736272    -0.04800
C2128       C  0.70070867  0.02542153  0.90573812    -0.01900
C2129       C  0.69453389  0.02549079  0.93516275     0.03000
C2130       C  0.68485304  0.04655833  0.94653289    -0.04800
C2131       C  0.68505480  0.06985013  0.92786698    -0.01900
C2132       C  0.69365519  0.07124277  0.89892938     0.03000
C2133       C  0.70527931  0.00010049  0.89435755     0.37700
C2134       C  0.67528205  0.09217126  0.93744638     0.37700
C2135       C  0.69221931  0.09460887  0.88063645     0.36100
C2136       C  0.69874025  0.00378045  0.95334785     0.36100
N2137       N  0.69086166  0.11318623  0.86621374    -0.38700
N2138       N  0.70240589  0.98650026  0.96762337    -0.38700
N2139       N  0.66750728  0.11006793  0.94466619    -0.38200
N2140       N  0.70836306  0.97951402  0.88546346    -0.38200
C2141       C  0.84321943  0.19440537  0.88419050    -0.04800
C2142       C  0.81885019  0.19538679  0.90000536    -0.01900
C2143       C  0.82309140  0.20354177  0.92937554     0.03000
C2144       C  0.85276332  0.21299423  0.94328432    -0.04800
C2145       C  0.87629710  0.21000229  0.92736516    -0.01900
C2146       C  0.87057085  0.19904235  0.89886693     0.03000
C2147       C  0.78974782  0.18954026  0.88596080     0.37700
C2148       C  0.90766145  0.21973251  0.93893839     0.37700
C2149       C  0.89327850  0.19260736  0.88446446     0.36100
C2150       C  0.79650536  0.20239539  0.94464161     0.36100
N2151       N  0.91124623  0.18729427  0.87307373    -0.38700
N2152       N  0.77498445  0.20124595  0.95643768    -0.38700
N2153       N  0.93302555  0.22771083  0.94741010    -0.38200
N2154       N  0.76654962  0.18499279  0.87484643    -0.38200
C2155       C  0.81927912  0.31338991  0.69996268    -0.04800
C2156       C  0.80065330  0.28147203  0.68987969    -0.01900
C2157       C  0.79675567  0.25533987  0.70661634     0.03000
C2158       C  0.80848786  0.26050517  0.73494737    -0.04800
C2159       C  0.82251188  0.29221399  0.74622676    -0.01900
C2160       C  0.83061701  0.31847541  0.72820898     0.03000
C2161       C  0.78358652  0.27527930  0.66321984     0.37700
C2162       C  0.82728454  0.29837862  0.77656253     0.37700
C2163       C  0.85164302  0.35091557  0.73876631     0.36100
C2164       C  0.77937660  0.22309177  0.69491595     0.36100
N2165       N  0.86854633  0.37668876  0.74724197    -0.38700
N2166       N  0.76553367  0.19739062  0.68545674    -0.38700
N2167       N  0.83025057  0.30354383  0.80075145    -0.38200
N2168       N  0.76922869  0.27013203  0.64231919    -0.38200
C2169       C  0.85807977  0.06796898  0.88330582    -0.04800
C2170       C  0.83177856  0.05480879  0.90200203    -0.01900
C2171       C  0.83610807  0.05212634  0.93138445     0.03000
C2172       C  0.86714188  0.06246117  0.94243723    -0.04800
C2173       C  0.89381011  0.07771510  0.92372118    -0.01900
C2174       C  0.88925501  0.08068074  0.89446240     0.03000
C2175       C  0.80037566  0.04500560  0.89075997     0.37700
C2176       C  0.92603256  0.08893267  0.93390919     0.37700
C2177       C  0.91678416  0.09560773  0.87558257     0.36100
C2178       C  0.80847048  0.53913836  0.95007972     0.36100
N2179       N  0.93881335  0.10765079  0.86063923    -0.38700
N2180       N  0.78631054  0.52870836  0.96486640    -0.38700
N2181       N  0.95184944  0.09802542  0.94178042    -0.38200
N2182       N  0.77575979  0.53794736  0.88112580    -0.38200
C2183       C  0.81748276  0.41419718  0.69592431    -0.04800
C2184       C  0.81794947  0.44010307  0.68132640    -0.01900
C2185       C  0.81722626  0.46513651  0.69661331     0.03000
C2186       C  0.81813085  0.46597818  0.72668073    -0.04800
C2187       C  0.81409586  0.43862628  0.74112218    -0.01900
C2188       C  0.81206677  0.41237469  0.72592580     0.03000
C2189       C  0.81704965  0.44029729  0.65051460     0.37700
C2190       C  0.81222133  0.43713867  0.77195339     0.37700
C2191       C  0.80272936  0.38323581  0.74179641     0.36100
C2192       C  0.81248949  0.98836008  0.68143100     0.36100
N2193       N  0.79444843  0.36013820  0.75495277    -0.38700
N2194       N  0.80775797  0.00624257  0.66924865    -0.38700
N2195       N  0.81042516  0.43537706  0.79647437    -0.38200
N2196       N  0.81612307  0.44053997  0.62593956    -0.38200
C2197       C  0.89276138  0.30467629  0.82166180    -0.04800
C2198       C  0.89363602  0.31504438  0.84997867    -0.01900
C2199       C  0.90986487  0.34810433  0.85623394     0.03000
C2200       C  0.92455557  0.37051075  0.83419370    -0.04800
C2201       C  0.92208021  0.36025167  0.80580064    -0.01900
C2202       C  0.90623464  0.32737693  0.79952711     0.03000
C2203       C  0.87889240  0.29198614  0.87281841     0.37700
C2204       C  0.93574871  0.38340875  0.78288642     0.37700
C2205       C  0.90250243  0.31705779  0.77007983     0.36100
C2206       C  0.91244731  0.35918299  0.88536195     0.36100
N2207       N  0.89919671  0.30923138  0.74648912    -0.38700
N2208       N  0.91469074  0.36819930  0.90854539    -0.38700
N2209       N  0.94613044  0.40118693  0.76409183    -0.38200
N2210       N  0.86708908  0.27388339  0.89124389    -0.38200
C2211       C  0.53030395  0.46392256  0.83787911    -0.04800
C2212       C  0.54076497  0.46965152  0.80934516    -0.01900
C2213       C  0.57267457  0.47954322  0.80278138     0.03000
C2214       C  0.59458449  0.98596399  0.82493533    -0.04800
C2215       C  0.58418836  0.98020634  0.85346838    -0.01900
C2216       C  0.55184682  0.46880004  0.85992439     0.03000
C2217       C  0.51914266  0.46682160  0.78681172     0.37700
C2218       C  0.60654016  0.98508521  0.87602745     0.37700
C2219       C  0.54081155  0.46252218  0.88915694     0.36100
C2220       C  0.58315139  0.48403963  0.77331348     0.36100
N2221       N  0.53206789  0.45760936  0.91250364    -0.38700
N2222       N  0.59139342  0.48742673  0.74982390    -0.38700
N2223       N  0.62411929  0.98858597  0.89413337    -0.38200
N2224       N  0.00247745  0.46545694  0.76865598    -0.38200
C2225       C  0.93667364  0.47653689  0.84328679    -0.04800
C2226       C  0.95325562  0.00623489  0.82867301    -0.01900
C2227       C  0.93661908  0.02118097  0.81923760     0.03000
C2228       C  0.90384222  0.00781408  0.82559839    -0.04800
C2229       C  0.88826588  0.48041169  0.84309762    -0.01900
C2230       C  0.90454141  0.46476292  0.85186829     0.03000
C2231       C  0.98734332  0.02164857  0.82273119     0.37700
C2232       C  0.85572421  0.46876095  0.85273685     0.37700
C2233       C  0.88829294  0.43694216  0.87029882     0.36100
C2234       C  0.95326919  0.04949757  0.80164383     0.36100
N2235       N  0.87533092  0.41477223  0.88499401    -0.38700
N2236       N  0.96762813  0.07193515  0.78758957    -0.38700
N2237       N  0.82984270  0.45954137  0.86057113    -0.38200
N2238       N  0.51461339  0.03425117  0.81844304    -0.38200
C2239       C  0.97658142  0.31610390  0.69154324    -0.04800
C2240       C  0.98302512  0.29611648  0.70879521    -0.01900
C2241       C  0.95789896  0.26949266  0.72317428     0.03000
C2242       C  0.92561554  0.26147176  0.71964051    -0.04800
C2243       C  0.91908346  0.27887968  0.69909271    -0.01900
C2244       C  0.94427072  0.30707420  0.68676944     0.03000
C2245       C  0.51548671  0.30229852  0.71140245     0.37700
C2246       C  0.88657065  0.26816336  0.69001197     0.37700
C2247       C  0.93642656  0.32760336  0.67050537     0.36100
C2248       C  0.96562153  0.24976612  0.74069619     0.36100
N2249       N  0.92991811  0.34387568  0.65778455    -0.38700
N2250       N  0.97192816  0.23406073  0.75451603    -0.38700
N2251       N  0.86086829  0.25969467  0.68218405    -0.38200
N2252       N  0.54133988  0.30713593  0.71349189    -0.38200
C2253       C  0.58683867  0.41104440  0.69685131    -0.04800
C2254       C  0.58779611  0.40900338  0.72703790    -0.01900
C2255       C  0.61579997  0.43035026  0.74226077     0.03000
C2256       C  0.64196766  0.45605255  0.72818781    -0.04800
C2257       C  0.64231527  0.45668634  0.69820466    -0.01900
C2258       C  0.61552276  0.43349326  0.68259218     0.03000
C2259       C  0.55984612  0.38630379  0.74325378     0.37700
C2260       C  0.67061551  0.98095406  0.68336201     0.37700
C2261       C  0.61822225  0.43251526  0.65189992     0.36100
C2262       C  0.61700565  0.42616172  0.77268331     0.36100
N2263       N  0.62061335  0.43167331  0.62746920    -0.38700
N2264       N  0.61766360  0.42197065  0.79680737    -0.38700
N2265       N  0.69317689  0.00022782  0.67146035    -0.38200
N2266       N  0.53776376  0.36846285  0.75655198    -0.38200
C2267       C  0.52011483  0.39187417  0.61013675    -0.04800
C2268       C  0.49703563  0.36874095  0.59105134    -0.01900
C2269       C  0.49589860  0.37675969  0.56242049     0.03000
C2270       C  0.51934754  0.40714375  0.55157061    -0.04800
C2271       C  0.54062831  0.43094455  0.57083614    -0.01900
C2272       C  0.54033564  0.42373331  0.59999807     0.03000
C2273       C  0.47537912  0.33572193  0.59973246     0.37700
C2274       C  0.56294628  0.46312446  0.56068540     0.37700
C2275       C  0.56088494  0.44957650  0.61932529     0.36100
C2276       C  0.97144211  0.35251833  0.54392438     0.36100
N2277       N  0.57725868  0.47037865  0.63459302    -0.38700
N2278       N  0.95181487  0.33309060  0.52941496    -0.38700
N2279       N  0.58067094  0.48881313  0.55261727    -0.38200
N2280       N  0.95810006  0.30927583  0.60623192    -0.38200
C2281       C  0.58303571  0.07158544  0.70322577    -0.04800
C2282       C  0.61323072  0.08068837  0.69091880    -0.01900
C2283       C  0.63812602  0.08172850  0.70746397     0.03000
C2284       C  0.63348895  0.07365276  0.73683858    -0.04800
C2285       C  0.60353675  0.06593904  0.74928910    -0.01900
C2286       C  0.57842651  0.06377290  0.73247554     0.03000
C2287       C  0.61924152  0.08941457  0.66108107     0.37700
C2288       C  0.59780371  0.06035192  0.77963560     0.37700
C2289       C  0.54708472  0.05175636  0.74530983     0.36100
C2290       C  0.66883228  0.09220480  0.69394560     0.36100
N2291       N  0.52195262  0.04210397  0.75519830    -0.38700
N2292       N  0.69325986  0.10070604  0.68299580    -0.38700
N2293       N  0.59301416  0.05616014  0.80380154    -0.38200
N2294       N  0.62412565  0.09614226  0.63727060    -0.38200
C2295       C  0.94057712  0.09342248  0.72520277    -0.04800
C2296       C  0.93330094  0.07633963  0.69929656    -0.01900
C2297       C  0.95655506  0.07200684  0.68529468     0.03000
C2298       C  0.98814324  0.08581596  0.69653330    -0.04800
C2299       C  0.49649438  0.10690215  0.72017950    -0.01900
C2300       C  0.97285688  0.11072569  0.73430954     0.03000
C2301       C  0.90173822  0.06283295  0.68682891     0.37700
C2302       C  0.52950438  0.12550663  0.72965043     0.37700
C2303       C  0.98185917  0.13289486  0.75810877     0.36100
C2304       C  0.94696247  0.05242949  0.65964551     0.36100
N2305       N  0.98901215  0.15043629  0.77717446    -0.38700
N2306       N  0.93916230  0.03713896  0.63904330    -0.38700
N2307       N  0.55586050  0.14051308  0.73715234    -0.38200
N2308       N  0.87694060  0.05265663  0.67624115    -0.38200
C2309       C  0.52696416  0.05853732  0.61127946    -0.04800
C2310       C  0.52510295  0.08163607  0.59459495    -0.01900
C2311       C  0.51746954  0.07590341  0.56565403     0.03000
C2312       C  0.51511062  0.04848414  0.55204659    -0.04800
C2313       C  0.51673029  0.02516063  0.56877360    -0.01900
C2314       C  0.52220616  0.02998438  0.59843403     0.03000
C2315       C  0.53164358  0.11196892  0.60711110     0.37700
C2316       C  0.51005250  0.99513317  0.55583503     0.37700
C2317       C  0.52129405  0.00498403  0.61591525     0.36100
C2318       C  0.51172630  0.09857640  0.55049351     0.36100
N2319       N  0.52022630  0.98497574  0.63005414    -0.38700
N2320       N  0.50659358  0.11658284  0.53905206    -0.38700
N2321       N  0.50407278  0.47104952  0.54529458    -0.38200
N2322       N  0.53683895  0.13610279  0.61700216    -0.38200
C2323       C  0.52954074  0.56322595  0.64249859     0.80700
N2324       N  0.50954237  0.57107379  0.65532417    -0.77600
C2325       C  0.51205461  0.57864586  0.68318511     0.83200
N2326       N  0.53595115  0.57884363  0.69840192    -0.77500
C2327       C  0.55657075  0.57096568  0.68602915     0.83300
N2328       N  0.55301893  0.56296317  0.65787532    -0.79200
C2329       C  0.52388956  0.88253290  0.63987139     0.80700
N2330       N  0.55192981  0.89988630  0.65432494    -0.77600
C2331       C  0.55616044  0.89077124  0.68053023     0.83200
N2332       N  0.53163277  0.86365986  0.69211665    -0.77500
C2333       C  0.50339866  0.84591374  0.67828587     0.83300
N2334       N  0.49985903  0.85567603  0.65226867    -0.79200
C2335       C  0.95101036  0.95581144  0.84594515     0.80700
N2336       N  0.98330602  0.96878140  0.84638418    -0.77600
C2337       C  0.49614958  0.94979154  0.84387352     0.83200
N2338       N  0.97684459  0.91775783  0.84073584    -0.77500
C2339       C  0.94474995  0.90458750  0.84080247     0.83300
N2340       N  0.93186542  0.92353248  0.84275855    -0.79200
O2341       O  0.79594278  0.53839045  0.75632774    -0.84800
O2342       O  0.84395289  0.60152772  0.76027132    -0.81900
C2343       C  0.86582486  0.62516792  0.77367925     0.98600
O2344       O  0.88752349  0.62315256  0.78673418    -0.81900
O2345       O  0.86646122  0.58763129  0.83566170    -0.84600
C2346       C  0.85302591  0.56381936  0.85198581     1.03200
O2347       O  0.83866339  0.53570443  0.84177395    -0.77300
O2348       O  0.79242295  0.52912289  0.80238020    -0.77500
C2349       C  0.78062369  0.53237261  0.77962713     1.03100
O2350       O  0.84303074  0.52301892  0.73427459    -0.84800
O2351       O  0.88901465  0.58727538  0.73480683    -0.81900
C2352       C  0.91417038  0.58918065  0.74453681     0.98600
O2353       O  0.91660795  0.58558632  0.77062749    -0.81900
O2354       O  0.89756479  0.55285997  0.81991259    -0.84500
C2355       C  0.88626919  0.52322566  0.81506215     1.03100
O2356       O  0.85983128  0.50651437  0.80241253    -0.77300
O2357       O  0.80904933  0.99195271  0.76633158    -0.77500
C2358       C  0.82351781  0.49513093  0.74308042     1.03100
Cr2359     Cr  0.84373264  0.56197957  0.74926966     1.93700
Cr2360     Cr  0.88906680  0.58510201  0.80159084     1.93200
Cr2361     Cr  0.82692683  0.51890235  0.80177869     1.39100
O2362       O  0.85333222  0.55570076  0.78430317    -1.22600
O2363       O  0.85694727  0.66446888  0.75270214    -0.84800
O2364       O  0.79654820  0.64958251  0.76229873    -0.81900
C2365       C  0.77424697  0.64640263  0.77807883     0.98600
O2366       O  0.77676986  0.66967685  0.79256194    -0.81900
O2367       O  0.81801471  0.68314330  0.83787169    -0.84600
C2368       C  0.84348227  0.69485965  0.85216916     1.03200
O2369       O  0.87007953  0.71098945  0.83949096    -0.77300
O2370       O  0.87330251  0.67171447  0.79730634    -0.77500
C2371       C  0.86549513  0.65538501  0.77461062     1.03100
O2372       O  0.87061975  0.72810475  0.73342272    -0.84800
O2373       O  0.80892748  0.71081652  0.73974589    -0.81900
C2374       C  0.80949637  0.73452783  0.75189874     0.98600
O2375       O  0.81326109  0.73776821  0.77836003    -0.81900
O2376       O  0.85040147  0.75053412  0.82429863    -0.84500
C2377       C  0.87803413  0.77036719  0.81480388     1.03100
O2378       O  0.89335521  0.76129317  0.79951915    -0.77300
O2379       O  0.90538933  0.72614151  0.76045824    -0.77500
C2380       C  0.89927102  0.73707457  0.73855950     1.03100
Cr2381     Cr  0.83400029  0.68938541  0.74974744     1.93700
Cr2382     Cr  0.81642280  0.70949653  0.80640929     1.93200
Cr2383     Cr  0.88250708  0.71638664  0.79821731     1.39100
O2384       O  0.84387160  0.70459680  0.78489097    -1.22600
O2385       O  0.74537856  0.59260209  0.76472685    -0.84800
O2386       O  0.73719857  0.53342202  0.75746981    -0.81900
C2387       C  0.74866750  0.52889146  0.78010867     0.98600
O2388       O  0.73282025  0.52116534  0.80302600    -0.81900
O2389       O  0.68964704  0.51857043  0.84421227    -0.84600
C2390       C  0.70305883  0.54600825  0.85570955     1.03200
O2391       O  0.71349195  0.57034273  0.84001750    -0.77300
O2392       O  0.72144600  0.60925820  0.79399076    -0.77500
C2393       C  0.74535723  0.61453755  0.77910716     1.03100
O2394       O  0.68256597  0.57225033  0.74213862    -0.84800
O2395       O  0.67175562  0.51186393  0.73782387    -0.81900
C2396       C  0.66604613  0.48444615  0.74472093     0.98600
O2397       O  0.67957150  0.98140125  0.76636049    -0.81900
O2398       O  0.64017857  0.48893461  0.80390144    -0.84500
C2399       C  0.62878676  0.50272476  0.81839272     1.03100
O2400       O  0.64619593  0.53132760  0.82717629    -0.77300
O2401       O  0.65479486  0.56663943  0.78037659    -0.77500
C2402       C  0.65851220  0.57107339  0.75400538     1.03100
Cr2403     Cr  0.70815068  0.55176080  0.75315742     1.93700
Cr2404     Cr  0.68644596  0.50535472  0.80324746     1.93200
Cr2405     Cr  0.68496697  0.56767851  0.80875568     1.39100
O2406       O  0.69339765  0.54200042  0.78833864    -1.22600
C2407       C  0.84551079  0.87501835  0.64208139     0.80700
N2408       N  0.83762776  0.89577963  0.65445074    -0.77600
C2409       C  0.82326248  0.88979021  0.68058222     0.83200
N2410       N  0.81689332  0.86246398  0.69405742    -0.77500
C2411       C  0.82446805  0.84148888  0.68259147     0.83300
N2412       N  0.83891855  0.84793893  0.65665052    -0.79200
C2413       C  0.70571342  0.90331469  0.31060731     0.80700
N2414       N  0.68493713  0.90947143  0.32467100    -0.77600
C2415       C  0.68977238  0.91972298  0.35216307     0.83200
N2416       N  0.71609690  0.92386724  0.36606704    -0.77500
C2417       C  0.73740236  0.91824995  0.35230948     0.83300
N2418       N  0.73203839  0.90797403  0.32487925    -0.79200
C2419       C  0.02194855  0.72803797  0.30853735     0.80700
N2420       N  0.01647102  0.74909046  0.32316198    -0.77600
C2421       C  0.00683019  0.74379155  0.35077439     0.83200
N2422       N  0.00260018  0.71706656  0.36419917    -0.77500
C2423       C  0.00732397  0.69546054  0.34977949     0.83300
N2424       N  0.01710259  0.70136009  0.32230833    -0.79200
C2425       C  0.63183274  0.80881409  0.51740804     0.80700
N2426       N  0.66378086  0.82038251  0.51778588    -0.77600
C2427       C  0.67551463  0.80031383  0.51750736     0.83200
N2428       N  0.65468919  0.76816814  0.51681141    -0.77500
C2429       C  0.62266475  0.75624055  0.51613560     0.83300
N2430       N  0.61137478  0.77664372  0.51623666    -0.79200
O2431       O  0.98546728  0.91126632  0.43269455    -0.84800
O2432       O  0.54501473  0.96025655  0.42334041    -0.81900
C2433       C  0.54972530  0.97641212  0.44599248     0.98600
O2434       O  0.55785890  0.96864479  0.46853973    -0.81900
O2435       O  0.55325830  0.92648107  0.51043636    -0.84600
C2436       C  0.52483191  0.91165289  0.52013305     1.03200
O2437       O  0.50178735  0.89647424  0.50324821    -0.77300
O2438       O  0.96652257  0.86577549  0.45552301    -0.77500
C2439       C  0.96263408  0.88736493  0.44452872     1.03100
O2440       O  0.00057298  0.86525470  0.40828200    -0.84800
O2441       O  0.56156109  0.91343194  0.40374406    -0.81900
C2442       C  0.59002664  0.93219187  0.41090220     0.98600
O2443       O  0.59554961  0.94958032  0.43298251    -0.81900
O2444       O  0.58462525  0.90493378  0.47316956    -0.84500
C2445       C  0.57079117  0.88072662  0.48896983     1.03100
O2446       O  0.54133648  0.86880052  0.49463145    -0.77300
O2447       O  0.01143317  0.84404064  0.44434224    -0.77500
C2448       C  0.00557210  0.84391749  0.41830807     1.03100
Cr2449     Cr  0.52391285  0.91227973  0.41944595     1.93700
Cr2450     Cr  0.57018610  0.93570832  0.47001616     1.93200
Cr2451     Cr  0.00696367  0.87123846  0.47297680     1.39100
O2452       O  0.53363915  0.90646121  0.45417978    -1.22600
O2453       O  0.52273279  0.00246614  0.43117095    -0.84800
O2454       O  0.97102489  0.00984568  0.42233277    -0.81900
C2455       C  0.95364541  0.00052010  0.44469220     0.98600
O2456       O  0.96150993  0.51814288  0.46640752    -0.81900
O2457       O  0.50080525  0.55922905  0.50718666    -0.84600
C2458       C  0.51413850  0.54664035  0.52036973     1.03200
O2459       O  0.53048072  0.53745265  0.50678102    -0.77300
O2460       O  0.56224640  0.52820059  0.46160309    -0.77500
C2461       C  0.54485475  0.00394121  0.44614918     1.03100
O2462       O  0.56653695  0.56539585  0.40861283    -0.84800
O2463       O  0.01768407  0.57528294  0.40142821    -0.81900
C2464       C  0.99822590  0.58415689  0.40720998     0.98600
O2465       O  0.98019204  0.57186277  0.42852469    -0.81900
O2466       O  0.52535540  0.61041566  0.46831572    -0.84500
C2467       C  0.54938008  0.62176569  0.48455972     1.03100
O2468       O  0.56019370  0.60415082  0.49247746    -0.77300
O2469       O  0.58796130  0.59476594  0.44671841    -0.77500
C2470       C  0.58921860  0.59015886  0.42055655     1.03100
Cr2471     Cr  0.51949154  0.53937078  0.41864510     1.93700
Cr2472     Cr  0.99414593  0.56395617  0.46636624     1.93200
Cr2473     Cr  0.55738803  0.56499614  0.47499876     1.39100
O2474       O  0.52369968  0.55566927  0.45340683    -1.22600
O2475       O  0.91257186  0.95221251  0.42361555    -0.84800
O2476       O  0.93000374  0.90765967  0.43255581    -0.81900
C2477       C  0.93165451  0.88541340  0.44470523     0.98600
O2478       O  0.90738658  0.86211140  0.45646443    -0.81900
O2479       O  0.89299364  0.88303582  0.50663466    -0.84600
C2480       C  0.88405665  0.89804321  0.52266938     1.03200
O2481       O  0.87196533  0.91333672  0.51192663    -0.77300
O2482       O  0.91007189  0.95787052  0.46960788    -0.77500
C2483       C  0.92399967  0.96869103  0.44600741     1.03100
O2484       O  0.85026556  0.90021563  0.40554384    -0.84800
O2485       O  0.87285350  0.85883917  0.40663900    -0.81900
C2486       C  0.84759581  0.83430274  0.41504433     0.98600
O2487       O  0.83977352  0.83204604  0.44083854    -0.81900
O2488       O  0.82702077  0.85066843  0.49130946    -0.84500
C2489       C  0.80909982  0.86214669  0.48735289     1.03100
O2490       O  0.81912477  0.88876106  0.47510172    -0.77300
O2491       O  0.85277059  0.93583996  0.43573380    -0.77500
C2492       C  0.84049177  0.91841039  0.41390239     1.03100
Cr2493     Cr  0.89012100  0.90409350  0.41988679     1.93700
Cr2494     Cr  0.86760064  0.85978512  0.47225789     1.93200
Cr2495     Cr  0.86471028  0.92221495  0.47179680     1.39100
O2496       O  0.87436373  0.89532548  0.45500752    -1.22600
C2497       C  0.70765140  0.71794832  0.30761383     0.80700
N2498       N  0.73623554  0.73962456  0.31963848    -0.77600
C2499       C  0.74286654  0.73626381  0.34715400     0.83200
N2500       N  0.72016709  0.71087628  0.36228693    -0.77500
C2501       C  0.69185216  0.68868394  0.35042632     0.83300
N2502       N  0.68567306  0.69235091  0.32304119    -0.79200
C2503       C  0.87159001  0.55686981  0.97309768     0.80700
N2504       N  0.84934624  0.52954015  0.98652549    -0.77600
C2505       C  0.85310442  0.52444100  0.01427415     0.83200
N2506       N  0.87911756  0.54685606  0.02880580    -0.77500
C2507       C  0.90168842  0.57397416  0.01566256     0.83300
N2508       N  0.89766892  0.57912758  0.98799593    -0.79200
C2509       C  0.85926981  0.72579063  0.97379893     0.80700
N2510       N  0.83851798  0.73199040  0.98826909    -0.77600
C2511       C  0.84467965  0.74323774  0.01556983     0.83200
N2512       N  0.87204583  0.74856052  0.02833876    -0.77500
C2513       C  0.89300494  0.74258884  0.01460230     0.83300
N2514       N  0.88627832  0.73123663  0.98750420    -0.79200
C2515       C  0.78645882  0.62894758  0.18521797     0.80700
N2516       N  0.81842327  0.64967559  0.18775892    -0.77600
C2517       C  0.83913067  0.63877067  0.18954574     0.83200
N2518       N  0.82726607  0.60662165  0.18896763    -0.77500
C2519       C  0.79534538  0.58565027  0.18684201     0.83300
N2520       N  0.77506928  0.59696682  0.18464740    -0.79200
O2521       O  0.58055606  0.78701976  0.08886221    -0.84800
O2522       O  0.59115927  0.73831987  0.09857873    -0.81900
C2523       C  0.59026421  0.71567375  0.11225039     0.98600
O2524       O  0.56538699  0.69611505  0.12609097    -0.81900
O2525       O  0.55814407  0.72835030  0.17188461    -0.84600
C2526       C  0.54925517  0.74406863  0.18689550     1.03200
O2527       O  0.53471518  0.75649907  0.17522795    -0.77300
O2528       O  0.57327840  0.79694127  0.13307597    -0.77500
C2529       C  0.59062189  0.80412460  0.11127289     1.03100
O2530       O  0.51581000  0.73843031  0.06896733    -0.84800
O2531       O  0.52926970  0.69164184  0.07619871    -0.81900
C2532       C  0.50309019  0.67017918  0.08697738     0.98600
O2533       O  0.49768395  0.67079173  0.11310680    -0.81900
O2534       O  0.99058985  0.69743962  0.16155134    -0.84500
C2535       C  0.97238904  0.70799777  0.15490703     1.03100
O2536       O  0.98223094  0.73066041  0.13733544    -0.77300
O2537       O  0.51755439  0.77521920  0.09642515    -0.77500
C2538       C  0.50576665  0.75698596  0.07493961     1.03100
Cr2539     Cr  0.55302143  0.73879571  0.08576113     1.93700
Cr2540     Cr  0.52881973  0.70059354  0.14142776     1.93200
Cr2541     Cr  0.52795255  0.76294551  0.13425425     1.39100
O2542       O  0.53702077  0.73423640  0.12056098    -1.22600
O2543       O  0.70536258  0.84382964  0.09036265    -0.84800
O2544       O  0.64482444  0.83271979  0.09751842    -0.81900
C2545       C  0.62306942  0.83244292  0.11231317     0.98600
O2546       O  0.62888721  0.85561638  0.12871843    -0.81900
O2547       O  0.66890422  0.86423220  0.17403795    -0.84600
C2548       C  0.69363814  0.87445508  0.18911930     1.03200
O2549       O  0.72084788  0.88963984  0.17741320    -0.77300
O2550       O  0.72132414  0.84995065  0.13503491    -0.77500
C2551       C  0.71203525  0.83339685  0.11258695     1.03100
O2552       O  0.72374975  0.90969418  0.07180685    -0.84800
O2553       O  0.66298961  0.89551250  0.07749281    -0.81900
C2554       C  0.66279910  0.91856612  0.09011242     0.98600
O2555       O  0.66857157  0.92273285  0.11630937    -0.81900
O2556       O  0.70546987  0.93244105  0.16259491    -0.84500
C2557       C  0.73430590  0.95132176  0.15511299     1.03100
O2558       O  0.74790059  0.94122047  0.13878416    -0.77300
O2559       O  0.75727163  0.90504885  0.09881620    -0.77500
C2560       C  0.75205286  0.91829166  0.07814546     1.03100
Cr2561     Cr  0.68536433  0.87152316  0.08699947     1.93700
Cr2562     Cr  0.66980555  0.89293167  0.14371333     1.93200
Cr2563     Cr  0.73377029  0.89540728  0.13628409     1.39100
O2564       O  0.69582995  0.88616503  0.12234008    -1.22600
O2565       O  0.63629796  0.72093046  0.08950508    -0.84800
O2566       O  0.68865581  0.78062747  0.09546509    -0.81900
C2567       C  0.70848994  0.80137996  0.11237666     0.98600
O2568       O  0.72454510  0.79498907  0.12950481    -0.81900
O2569       O  0.69661264  0.75212589  0.17508830    -0.84600
C2570       C  0.68094850  0.72561042  0.18798974     1.03200
O2571       O  0.66641405  0.70014773  0.17368683    -0.77300
O2572       O  0.62590579  0.70204297  0.13336921    -0.77500
C2573       C  0.61882077  0.71247069  0.11173779     1.03100
O2574       O  0.68044866  0.70031793  0.06784738    -0.84800
O2575       O  0.72984304  0.75932837  0.07258434    -0.81900
C2576       C  0.75296715  0.75938493  0.08485950     0.98600
O2577       O  0.75308790  0.75748411  0.11151198    -0.81900
O2578       O  0.72695172  0.71818770  0.15602514    -0.84500
C2579       C  0.71547241  0.68914053  0.14870015     1.03100
O2580       O  0.69026352  0.67495581  0.13368914    -0.77300
O2581       O  0.64271935  0.66707710  0.09532884    -0.77500
C2582       C  0.65955820  0.67202497  0.07347152     1.03100
Cr2583     Cr  0.68388409  0.73923132  0.08444520     1.93700
Cr2584     Cr  0.72233307  0.75397299  0.14098637     1.93200
Cr2585     Cr  0.65875154  0.68956709  0.13273557     1.39100
O2586       O  0.68834303  0.72823399  0.11959941    -1.22600
C2587       C  0.67381596  0.54376803  0.97719071     0.80700
N2588       N  0.66789777  0.51826736  0.99370754    -0.77600
C2589       C  0.65789250  0.51592796  0.02116336     0.83200
N2590       N  0.65351767  0.53941772  0.03204123    -0.77500
C2591       C  0.65951438  0.56511345  0.01614826     0.83300
N2592       N  0.66966854  0.56702314  0.98897599    -0.79200
C2593       C  0.65643329  0.64476273  0.05545785    -0.04800
C2594       C  0.63112974  0.61263504  0.05992520    -0.01900
C2595       C  0.63170501  0.58668449  0.04659856     0.03000
C2596       C  0.65772236  0.59230612  0.02901425    -0.04800
C2597       C  0.68242785  0.62421060  0.02385514    -0.01900
C2598       C  0.68088953  0.65018899  0.03557385     0.03000
C2599       C  0.60392971  0.60584667  0.07774961     0.37700
C2600       C  0.71099102  0.63060076  0.00822242     0.37700
C2601       C  0.70479796  0.68231475  0.02653520     0.36100
C2602       C  0.60535030  0.55411199  0.05105183     0.36100
N2603       N  0.72369203  0.70764626  0.01856404    -0.38700
N2604       N  0.58435166  0.52813817  0.05468423    -0.38700
N2605       N  0.73389955  0.63572870  0.99609813    -0.38200
N2606       N  0.58215519  0.60028442  0.09189703    -0.38200
C2607       C  0.65490946  0.98965617  0.03996034    -0.04800
C2608       C  0.66508812  0.99615106  0.06866696    -0.01900
C2609       C  0.66581838  0.97250851  0.08550905     0.03000
C2610       C  0.65695404  0.94185405  0.07381405    -0.04800
C2611       C  0.64409058  0.93459178  0.04582915    -0.01900
C2612       C  0.64299390  0.95826205  0.02918394     0.03000
C2613       C  0.67587087  0.52760324  0.08106737     0.37700
C2614       C  0.63126058  0.90260482  0.03395253     0.37700
C2615       C  0.62850641  0.94981726  0.00113885     0.36100
C2616       C  0.67688744  0.98091621  0.11470091     0.36100
N2617       N  0.61683676  0.94302730  0.97884576    -0.38700
N2618       N  0.68578839  0.98810418  0.13784668    -0.38700
N2619       N  0.62098966  0.87713328  0.02436279    -0.38200
N2620       N  0.68401372  0.55253952  0.09098371    -0.38200
C2621       C  0.76529349  0.64147041  0.17779427    -0.04800
C2622       C  0.76638964  0.66646152  0.19398130    -0.01900
C2623       C  0.75034122  0.68204882  0.18457731     0.03000
C2624       C  0.73171267  0.67183763  0.15912894    -0.04800
C2625       C  0.72988544  0.64585294  0.14347676    -0.01900
C2626       C  0.74667018  0.63087828  0.15272954     0.03000
C2627       C  0.78405762  0.67609120  0.22059503     0.37700
C2628       C  0.71275351  0.63572194  0.11670491     0.37700
C2629       C  0.74632520  0.60575967  0.13543809     0.36100
C2630       C  0.75443093  0.70935224  0.20104511     0.36100
N2631       N  0.74644175  0.58576502  0.12195452    -0.38700
N2632       N  0.75852261  0.73142265  0.21416795    -0.38700
N2633       N  0.69933131  0.62741408  0.09524822    -0.38200
N2634       N  0.79803069  0.68366892  0.24183428    -0.38200
C2635       C  0.75224232  0.98529519  0.16600378    -0.04800
C2636       C  0.78286364  0.50806997  0.15472622    -0.01900
C2637       C  0.79761482  0.54075466  0.16234075     0.03000
C2638       C  0.78283650  0.55102332  0.18221971    -0.04800
C2639       C  0.75421425  0.52826029  0.19562398    -0.01900
C2640       C  0.73877985  0.99571341  0.18750377     0.03000
C2641       C  0.79981668  0.99869592  0.13508338     0.37700
C2642       C  0.74052792  0.53839954  0.21801647     0.37700
C2643       C  0.70890645  0.97361759  0.20163713     0.36100
C2644       C  0.82729441  0.56395821  0.14837182     0.36100
N2645       N  0.68503031  0.95680162  0.21320057    -0.38700
N2646       N  0.85091888  0.58236659  0.13722546    -0.38700
N2647       N  0.72962038  0.54643762  0.23583635    -0.38200
N2648       N  0.81393299  0.99174050  0.11966881    -0.38200
C2649       C  0.87438614  0.66107313  0.18620243    -0.04800
C2650       C  0.89609986  0.65266565  0.19741205    -0.01900
C2651       C  0.92840938  0.66893610  0.18852973     0.03000
C2652       C  0.93954280  0.69386334  0.16794414    -0.04800
C2653       C  0.91861655  0.70491308  0.15977248    -0.01900
C2654       C  0.88640429  0.68866542  0.16878094     0.03000
C2655       C  0.88526499  0.62704760  0.21821501     0.37700
C2656       C  0.92940757  0.73278656  0.14161968     0.37700
C2657       C  0.86564854  0.70004239  0.15876054     0.36100
C2658       C  0.94974180  0.65959032  0.20104546     0.36100
N2659       N  0.84936959  0.70939504  0.15079892    -0.38700
N2660       N  0.96644093  0.65192075  0.21128501    -0.38700
N2661       N  0.93746149  0.75491827  0.12719513    -0.38200
N2662       N  0.87672457  0.60656691  0.23467843    -0.38200
C2663       C  0.82107769  0.74775162  0.03265587    -0.04800
C2664       C  0.80589637  0.76373265  0.02157588    -0.01900
C2665       C  0.78540154  0.76958547  0.03897756     0.03000
C2666       C  0.77913443  0.75890200  0.06765031    -0.04800
C2667       C  0.79556390  0.74400915  0.07881884    -0.01900
C2668       C  0.81521971  0.73750737  0.06128381     0.03000
C2669       C  0.81137435  0.77438000  0.99225413     0.37700
C2670       C  0.79312958  0.73538807  0.10859321     0.37700
C2671       C  0.82819675  0.71860962  0.07267023     0.36100
C2672       C  0.77164524  0.78758058  0.02739704     0.36100
N2673       N  0.83843736  0.70349046  0.08168429    -0.38700
N2674       N  0.76082914  0.80208138  0.01814971    -0.38700
N2675       N  0.79244064  0.72900865  0.13234558    -0.38200
N2676       N  0.81544881  0.78267216  0.96879489    -0.38200
C2677       C  0.92248844  0.74723530  0.02945313    -0.04800
C2678       C  0.93308175  0.72529162  0.02486652    -0.01900
C2679       C  0.96196327  0.73061947  0.03705558     0.03000
C2680       C  0.97897497  0.75576835  0.05733814    -0.04800
C2681       C  0.96809141  0.77765315  0.06208146    -0.01900
C2682       C  0.94038531  0.77358678  0.04808268     0.03000
C2683       C  0.91318761  0.69569326  0.00911702     0.37700
C2684       C  0.98561159  0.80509653  0.08083156     0.37700
C2685       C  0.93045312  0.79684253  0.05303389     0.36100
C2686       C  0.97409028  0.71026219  0.02748100     0.36100
N2687       N  0.92247655  0.81531008  0.05716875    -0.38700
N2688       N  0.98365650  0.69421326  0.01911424    -0.38700
N2689       N  0.99940595  0.82701750  0.09579978    -0.38200
N2690       N  0.89730808  0.67194205  0.99683943    -0.38200
C2691       C  0.82714671  0.99668639  0.02977589    -0.04800
C2692       C  0.82824007  0.96841744  0.03403642    -0.01900
C2693       C  0.80392839  0.94262660  0.04994238     0.03000
C2694       C  0.77866002  0.94524608  0.06201071    -0.04800
C2695       C  0.77824664  0.97405792  0.05821728    -0.01900
C2696       C  0.80203617  0.99936249  0.04184452     0.03000
C2697       C  0.85432532  0.96590183  0.02184904     0.37700
C2698       C  0.75459588  0.97877225  0.07277664     0.37700
C2699       C  0.80086424  0.02845183  0.03771903     0.36100
C2700       C  0.80449498  0.91318551  0.05323316     0.36100
N2701       N  0.79969649  0.05149431  0.03437821    -0.38700
N2702       N  0.80490431  0.88963889  0.05578777    -0.38700
N2703       N  0.73634682  0.98317073  0.08474231    -0.38200
N2704       N  0.87522362  0.96405774  0.01205986    -0.38200
C2705       C  0.97752758  0.64517271  0.06854853    -0.04800
C2706       C  0.94657910  0.64135378  0.06886632    -0.01900
C2707       C  0.92228163  0.61872747  0.05089465     0.03000
C2708       C  0.92837099  0.59933836  0.03264028    -0.04800
C2709       C  0.95927589  0.60334429  0.03179252    -0.01900
C2710       C  0.98389972  0.62637596  0.04956576     0.03000
C2711       C  0.93990412  0.66205632  0.08624518     0.37700
C2712       C  0.96554004  0.58342187  0.01293190     0.37700
C2713       C  0.51552064  0.63020047  0.04877513     0.36100
C2714       C  0.89108694  0.61603134  0.05060370     0.36100
N2715       N  0.54078359  0.63330586  0.04815367    -0.38700
N2716       N  0.86638423  0.61420941  0.05031409    -0.38700
N2717       N  0.97049920  0.56747720  0.99787884    -0.38200
N2718       N  0.93370313  0.67837418  0.09941612    -0.38200
C2719       C  0.70068627  0.72078455  0.27730378    -0.04800
C2720       C  0.69550356  0.69613346  0.25827527    -0.01900
C2721       C  0.68500108  0.69578704  0.23037227     0.03000
C2722       C  0.68386450  0.72268422  0.21956984    -0.04800
C2723       C  0.68867927  0.74730210  0.23881295    -0.01900
C2724       C  0.69660567  0.74612711  0.26767425     0.03000
C2725       C  0.70358895  0.67229170  0.26660421     0.37700
C2726       C  0.68263256  0.77217925  0.22950682     0.37700
C2727       C  0.69985918  0.77058241  0.28754145     0.36100
C2728       C  0.67569273  0.66729268  0.21322739     0.36100
N2729       N  0.70232370  0.79010214  0.30336090    -0.38700
N2730       N  0.66785715  0.64414447  0.20011622    -0.38700
N2731       N  0.67693622  0.79144229  0.22201616    -0.38200
N2732       N  0.71096042  0.65379565  0.27249002    -0.38200
C2733       C  0.77381146  0.76074130  0.36150585    -0.04800
C2734       C  0.78532388  0.75216249  0.38576949    -0.01900
C2735       C  0.81101343  0.77596039  0.40211280     0.03000
C2736       C  0.82610423  0.80860953  0.39442628    -0.04800
C2737       C  0.81793494  0.81667842  0.36815323    -0.01900
C2738       C  0.79158881  0.79319544  0.35215339     0.03000
C2739       C  0.77128967  0.71880052  0.39412046     0.37700
C2740       C  0.83577618  0.84945890  0.35774461     0.37700
C2741       C  0.78251480  0.80343305  0.32671415     0.36100
C2742       C  0.82252887  0.76674762  0.42666006     0.36100
N2743       N  0.77588421  0.81219691  0.30643515    -0.38700
N2744       N  0.83179276  0.75949473  0.44621939    -0.38700
N2745       N  0.84989829  0.87533356  0.34884988    -0.38200
N2746       N  0.76022271  0.69227488  0.40098426    -0.38200
C2747       C  0.66651616  0.66298387  0.36851653    -0.04800
C2748       C  0.65649939  0.67177608  0.39333166    -0.01900
C2749       C  0.63258836  0.64809473  0.41092168     0.03000
C2750       C  0.61735431  0.61492875  0.40358184    -0.04800
C2751       C  0.62825344  0.60615817  0.37909932    -0.01900
C2752       C  0.65251035  0.63003575  0.36161974     0.03000
C2753       C  0.66997986  0.70560355  0.40026975     0.37700
C2754       C  0.61552836  0.57247995  0.37241405     0.37700
C2755       C  0.66350556  0.62031620  0.33700835     0.36100
C2756       C  0.62410495  0.65878124  0.43648640     0.36100
N2757       N  0.67170873  0.61151617  0.31764905    -0.38700
N2758       N  0.61884259  0.66864478  0.45689657    -0.38700
N2759       N  0.60550045  0.54560633  0.36721793    -0.38200
N2760       N  0.68072860  0.73255394  0.40561948    -0.38200
C2761       C  0.60080549  0.72167519  0.51059684    -0.04800
C2762       C  0.57949263  0.71175378  0.48736924    -0.01900
C2763       C  0.56122111  0.67902491  0.47996740     0.03000
C2764       C  0.56508731  0.65581490  0.49496125    -0.04800
C2765       C  0.58582130  0.66602749  0.51904996    -0.01900
C2766       C  0.60319201  0.69870403  0.52687527     0.03000
C2767       C  0.57785319  0.73541527  0.46964404     0.37700
C2768       C  0.59011960  0.64347509  0.53594763     0.37700
C2769       C  0.62372937  0.70879944  0.55180206     0.36100
C2770       C  0.53966245  0.67017353  0.45596231     0.36100
N2771       N  0.64007865  0.71687553  0.57165920    -0.38700
N2772       N  0.52251277  0.66400069  0.43688729    -0.38700
N2773       N  0.59402890  0.62585318  0.54946143    -0.38200
N2774       N  0.57659059  0.75417365  0.45541834    -0.38200
C2775       C  0.71054428  0.81378086  0.51351252    -0.04800
C2776       C  0.72196788  0.79756716  0.49624119    -0.01900
C2777       C  0.75465189  0.81275819  0.48905823     0.03000
C2778       C  0.77593970  0.84450909  0.49807357    -0.04800
C2779       C  0.76530881  0.85979089  0.51693606    -0.01900
C2780       C  0.73280192  0.84451372  0.52476000     0.03000
C2781       C  0.70028631  0.76602258  0.48422223     0.37700
C2782       C  0.78811840  0.89094799  0.52897654     0.37700
C2783       C  0.72252106  0.86073276  0.54437583     0.36100
C2784       C  0.76595438  0.79578776  0.47160383     0.36100
N2785       N  0.71435432  0.87382960  0.55984255    -0.38700
N2786       N  0.77419202  0.78143324  0.45790755    -0.38700
N2787       N  0.80636973  0.91564320  0.53873298    -0.38200
N2788       N  0.68321840  0.74089148  0.47455909    -0.38200
C2789       C  0.61924182  0.83082314  0.51439013    -0.04800
C2790       C  0.58993073  0.82314340  0.52738447    -0.01900
C2791       C  0.57480166  0.84045642  0.52048406     0.03000
C2792       C  0.58906391  0.86601019  0.50055357    -0.04800
C2793       C  0.62068043  0.87641541  0.49083183    -0.01900
C2794       C  0.63516501  0.85834589  0.49694301     0.03000
C2795       C  0.57519882  0.79734259  0.54807837     0.37700
C2796       C  0.63885272  0.90551703  0.47417898     0.37700
C2797       C  0.66575118  0.86746397  0.48368228     0.36100
C2798       C  0.54479663  0.83181182  0.53454280     0.36100
N2799       N  0.69009539  0.87498035  0.47300094    -0.38700
N2800       N  0.52093114  0.82458136  0.54600502    -0.38700
N2801       N  0.65374020  0.92874090  0.46108962    -0.38200
N2802       N  0.56342854  0.77676499  0.56451596    -0.38200
C2803       C  0.99834252  0.61046059  0.38993082    -0.04800
C2804       C  0.02549074  0.63120572  0.37287856    -0.01900
C2805       C  0.02890667  0.65959358  0.36130524     0.03000
C2806       C  0.00413968  0.66653760  0.36406046    -0.04800
C2807       C  0.97605199  0.64499221  0.37908131    -0.01900
C2808       C  0.97325863  0.61738572  0.39225959     0.03000
C2809       C  0.05034292  0.62388054  0.36650449     0.37700
C2810       C  0.94966033  0.65091616  0.38052701     0.37700
C2811       C  0.94425307  0.59617677  0.40791805     0.36100
C2812       C  0.05889606  0.68251091  0.34757599     0.36100
N2813       N  0.92105974  0.57942852  0.42044488    -0.38700
N2814       N  0.08285768  0.70075953  0.33681360    -0.38700
N2815       N  0.92862431  0.65567567  0.38153323    -0.38200
N2816       N  0.57009761  0.61825433  0.36053926    -0.38200
C2817       C  0.00612761  0.76954265  0.36733140    -0.04800
C2818       C  0.98093749  0.77582714  0.36417444    -0.01900
C2819       C  0.98096983  0.80078883  0.38004603     0.03000
C2820       C  0.00584639  0.81901694  0.39968866    -0.04800
C2821       C  0.53172929  0.81342887  0.40174836    -0.01900
C2822       C  0.53183391  0.78888754  0.38565620     0.03000
C2823       C  0.95469250  0.75613416  0.34503495     0.37700
C2824       C  0.55962100  0.83441042  0.41880913     0.37700
C2825       C  0.55905419  0.78420020  0.38722209     0.36100
C2826       C  0.95536428  0.80751887  0.37624793     0.36100
N2827       N  0.58079490  0.78055317  0.38828737    -0.38700
N2828       N  0.93509932  0.81312029  0.37301244    -0.38700
N2829       N  0.58240604  0.85119438  0.43177343    -0.38200
N2830       N  0.93368670  0.74027198  0.32984435    -0.38200
C2831       C  0.55026995  0.74342384  0.21872406    -0.04800
C2832       C  0.55057737  0.76820326  0.23502002    -0.01900
C2833       C  0.54321070  0.76407600  0.26439486     0.03000
C2834       C  0.03381385  0.73424249  0.27798007    -0.04800
C2835       C  0.03589204  0.71030958  0.26176107    -0.01900
C2836       C  0.54488308  0.71533655  0.23278561     0.03000
C2837       C  0.55793021  0.79809152  0.22143803     0.37700
C2838       C  0.02766857  0.67945118  0.27384809     0.37700
C2839       C  0.54662756  0.69026500  0.21718663     0.36100
C2840       C  0.54546157  0.79107015  0.28009358     0.36100
N2841       N  0.54802103  0.67025041  0.20488819    -0.38700
N2842       N  0.54737856  0.81277308  0.29236445    -0.38700
N2843       N  0.02109836  0.65465167  0.28297823    -0.38200
N2844       N  0.56330003  0.82175264  0.21062673    -0.38200
C2845       C  0.76391214  0.91882949  0.36813383    -0.04800
C2846       C  0.76109828  0.88954014  0.37635978    -0.01900
C2847       C  0.78594381  0.88952960  0.39167701     0.03000
C2848       C  0.81427645  0.91886570  0.39819392    -0.04800
C2849       C  0.81711414  0.94820564  0.38980115    -0.01900
C2850       C  0.79187851  0.94816299  0.37490141     0.03000
C2851       C  0.73227107  0.85931468  0.36943305     0.37700
C2852       C  0.84635746  0.97835392  0.39571702     0.37700
C2853       C  0.79500613  0.97821823  0.36586174     0.36100
C2854       C  0.78139724  0.85927421  0.40199498     0.36100
N2855       N  0.79760603  0.50223349  0.35857518    -0.38700
N2856       N  0.77719795  0.83497967  0.41034055    -0.38700
N2857       N  0.86977159  0.00233328  0.40044301    -0.38200
N2858       N  0.70930866  0.83526869  0.36383840    -0.38200
C2859       C  0.66493153  0.92387154  0.36717111    -0.04800
C2860       C  0.67328189  0.95094414  0.38461140    -0.01900
C2861       C  0.64918548  0.95457241  0.39826092     0.03000
C2862       C  0.61624862  0.93173520  0.39378715    -0.04800
C2863       C  0.60835313  0.90627080  0.37398518    -0.01900
C2864       C  0.63224958  0.90107907  0.36281759     0.03000
C2865       C  0.70670088  0.97555992  0.38810478     0.37700
C2866       C  0.57597798  0.88582098  0.36334808     0.37700
C2867       C  0.62278549  0.87111965  0.34789277     0.36100
C2868       C  0.65862064  0.98270244  0.41583569     0.36100
N2869       N  0.61516589  0.84714053  0.33626178    -0.38700
N2870       N  0.66627244  0.50525115  0.42977120    -0.38700
N2871       N  0.55057303  0.86979695  0.35398007    -0.38200
N2872       N  0.73333938  0.49528985  0.39087759    -0.38200
C2873       C  0.69941527  0.89108809  0.28008419    -0.04800
C2874       C  0.71846359  0.87999708  0.26666313    -0.01900
C2875       C  0.71488725  0.87216160  0.23735553     0.03000
C2876       C  0.69173483  0.87415567  0.22088580    -0.04800
C2877       C  0.67047922  0.88175114  0.23458801    -0.01900
C2878       C  0.67446062  0.89059534  0.26365519     0.03000
C2879       C  0.74215319  0.87648224  0.28242401     0.37700
C2880       C  0.64570386  0.88294574  0.21833664     0.37700
C2881       C  0.65312908  0.90036815  0.27564881     0.36100
C2882       C  0.73528725  0.86195068  0.22403391     0.36100
N2883       N  0.63591243  0.90814150  0.28471353    -0.38700
N2884       N  0.75142668  0.85364534  0.21349192    -0.38700
N2885       N  0.62624995  0.88434242  0.20535673    -0.38200
N2886       N  0.76118491  0.87364114  0.29469143    -0.38200
C2887       C  0.86095343  0.88181929  0.61266118    -0.04800
C2888       C  0.85789738  0.85656844  0.59471250    -0.01900
C2889       C  0.86860904  0.86258299  0.56607768     0.03000
C2890       C  0.88240555  0.89377901  0.55445370    -0.04800
C2891       C  0.88881667  0.91948661  0.57294220    -0.01900
C2892       C  0.87861531  0.91370255  0.60178554     0.03000
C2893       C  0.84317415  0.82381310  0.60484427     0.37700
C2894       C  0.90664205  0.95216170  0.56233707     0.37700
C2895       C  0.88751439  0.94100260  0.62033372     0.36100
C2896       C  0.86369705  0.83591178  0.54815042     0.36100
N2897       N  0.89480286  0.96281792  0.63514925    -0.38700
N2898       N  0.85985377  0.81462349  0.53397462    -0.38700
N2899       N  0.92111565  0.97825112  0.55396199    -0.38200
N2900       N  0.83203558  0.79743674  0.61215337    -0.38200
C2901       C  0.70085386  0.54858607  0.88736282    -0.04800
C2902       C  0.70070877  0.52542176  0.90573830    -0.01900
C2903       C  0.69453329  0.52549070  0.93516278     0.03000
C2904       C  0.68485178  0.54655770  0.94653271    -0.04800
C2905       C  0.68505311  0.56984936  0.92786671    -0.01900
C2906       C  0.69365393  0.57124210  0.89892923     0.03000
C2907       C  0.70528065  0.50010154  0.89435792     0.37700
C2908       C  0.67527966  0.59216982  0.93744595     0.37700
C2909       C  0.69221745  0.59460785  0.88063610     0.36100
C2910       C  0.69873978  0.50378044  0.95334807     0.36100
N2911       N  0.69085945  0.61318480  0.86621324    -0.38700
N2912       N  0.70240533  0.48650039  0.96762365    -0.38700
N2913       N  0.66750426  0.61006618  0.94466558    -0.38200
N2914       N  0.70836571  0.47951574  0.88546388    -0.38200
C2915       C  0.84322010  0.69440546  0.88419059    -0.04800
C2916       C  0.81885033  0.69538600  0.90000546    -0.01900
C2917       C  0.82309176  0.70354162  0.92937560     0.03000
C2918       C  0.85276395  0.71299499  0.94328427    -0.04800
C2919       C  0.87629801  0.71000357  0.92736503    -0.01900
C2920       C  0.87057184  0.69904337  0.89886692     0.03000
C2921       C  0.78974723  0.68953774  0.88596115     0.37700
C2922       C  0.90766263  0.71973469  0.93893818     0.37700
C2923       C  0.89328000  0.69260910  0.88446451     0.36100
C2924       C  0.79650557  0.70239493  0.94464165     0.36100
N2925       N  0.91124816  0.68729648  0.87307379    -0.38700
N2926       N  0.77498456  0.70124526  0.95643778    -0.38700
N2927       N  0.93302694  0.72771359  0.94740990    -0.38200
N2928       N  0.76654846  0.68498870  0.87484709    -0.38200
C2929       C  0.81927928  0.81339007  0.69996288    -0.04800
C2930       C  0.80065340  0.78147217  0.68987988    -0.01900
C2931       C  0.79675570  0.75533992  0.70661659     0.03000
C2932       C  0.80848804  0.76050531  0.73494755    -0.04800
C2933       C  0.82251212  0.79221415  0.74622700    -0.01900
C2934       C  0.83061713  0.81847545  0.72820913     0.03000
C2935       C  0.78358668  0.77527942  0.66322010     0.37700
C2936       C  0.82728492  0.79837879  0.77656269     0.37700
C2937       C  0.85164319  0.85091570  0.73876652     0.36100
C2938       C  0.77937645  0.72309182  0.69491623     0.36100
N2939       N  0.86854648  0.87668893  0.74724217    -0.38700
N2940       N  0.76553347  0.69739077  0.68545704    -0.38700
N2941       N  0.83025110  0.80354399  0.80075167    -0.38200
N2942       N  0.76922883  0.77013216  0.64231936    -0.38200
C2943       C  0.85808006  0.56796942  0.88330569    -0.04800
C2944       C  0.83177900  0.55481057  0.90200206    -0.01900
C2945       C  0.83610836  0.55212778  0.93138434     0.03000
C2946       C  0.86714198  0.56246138  0.94243701    -0.04800
C2947       C  0.89381014  0.57771420  0.92372093    -0.01900
C2948       C  0.88925523  0.58068004  0.89446206     0.03000
C2949       C  0.80037652  0.54500950  0.89076010     0.37700
C2950       C  0.92603237  0.58893047  0.93390883     0.37700
C2951       C  0.91678432  0.59560599  0.87558224     0.36100
C2952       C  0.80847004  0.03913608  0.95007973     0.36100
N2953       N  0.93881351  0.60764831  0.86063886    -0.38700
N2954       N  0.78630999  0.02870536  0.96486618    -0.38700
N2955       N  0.95184906  0.59802233  0.94177996    -0.38200
N2956       N  0.77575855  0.03794158  0.88112539    -0.38200
C2957       C  0.81748269  0.91419724  0.69592423    -0.04800
C2958       C  0.81794942  0.94010298  0.68132630    -0.01900
C2959       C  0.81722623  0.96513657  0.69661321     0.03000
C2960       C  0.81813088  0.96597835  0.72668053    -0.04800
C2961       C  0.81409570  0.93862629  0.74112213    -0.01900
C2962       C  0.81206670  0.91237483  0.72592578     0.03000
C2963       C  0.81704953  0.94029716  0.65051458     0.37700
C2964       C  0.81222088  0.93713869  0.77195320     0.37700
C2965       C  0.80272934  0.88323591  0.74179643     0.36100
C2966       C  0.81248951  0.48836002  0.68143125     0.36100
N2967       N  0.79444849  0.86013841  0.75495282    -0.38700
N2968       N  0.80775795  0.50624255  0.66924889    -0.38700
N2969       N  0.81042443  0.93537698  0.79647426    -0.38200
N2970       N  0.81612287  0.94053980  0.62593939    -0.38200
C2971       C  0.89276181  0.80467625  0.82166174    -0.04800
C2972       C  0.89363647  0.81504449  0.84997855    -0.01900
C2973       C  0.90986508  0.84810417  0.85623388     0.03000
C2974       C  0.92455576  0.87051067  0.83419359    -0.04800
C2975       C  0.92208047  0.86025170  0.80580048    -0.01900
C2976       C  0.90623490  0.82737681  0.79952708     0.03000
C2977       C  0.87889268  0.79198609  0.87281826     0.37700
C2978       C  0.93574896  0.88340871  0.78288632     0.37700
C2979       C  0.90250274  0.81705772  0.77007970     0.36100
C2980       C  0.91244736  0.85918295  0.88536191     0.36100
N2981       N  0.89919695  0.80923126  0.74648908    -0.38700
N2982       N  0.91469070  0.86819922  0.90854522    -0.38700
N2983       N  0.94613052  0.90118679  0.76409174    -0.38200
N2984       N  0.86708936  0.77388329  0.89124381    -0.38200
C2985       C  0.53030393  0.96392234  0.83787840    -0.04800
C2986       C  0.54076488  0.96965074  0.80934436    -0.01900
C2987       C  0.57267456  0.97954264  0.80278097     0.03000
C2988       C  0.59458450  0.48596388  0.82493574    -0.04800
C2989       C  0.58418840  0.48020570  0.85346866    -0.01900
C2990       C  0.55184674  0.96880051  0.85992386     0.03000
C2991       C  0.51914262  0.96682014  0.78681087     0.37700
C2992       C  0.60654028  0.48508382  0.87602764     0.37700
C2993       C  0.54081130  0.96252293  0.88915651     0.36100
C2994       C  0.58315156  0.98403884  0.77331296     0.36100
N2995       N  0.53206758  0.95761050  0.91250300    -0.38700
N2996       N  0.59139362  0.98742575  0.74982356    -0.38700
N2997       N  0.62411923  0.48858388  0.89413312    -0.38200
N2998       N  0.00247762  0.96545727  0.76865608    -0.38200
C2999       C  0.93667352  0.97653667  0.84328644    -0.04800
C3000       C  0.95325557  0.50623472  0.82867284    -0.01900
C3001       C  0.93661882  0.52118063  0.81923726     0.03000
C3002       C  0.90384214  0.50781400  0.82559857    -0.04800
C3003       C  0.88826556  0.98041137  0.84309701    -0.01900
C3004       C  0.90454120  0.96476248  0.85186750     0.03000
C3005       C  0.98734323  0.52164818  0.82273048     0.37700
C3006       C  0.85572390  0.96876042  0.85273601     0.37700
C3007       C  0.88829230  0.93694123  0.87029745     0.36100
C3008       C  0.95326866  0.54949667  0.80164287     0.36100
N3009       N  0.87532987  0.91477080  0.88499204    -0.38700
N3010       N  0.96762744  0.57193382  0.78758802    -0.38700
N3011       N  0.82984231  0.95954076  0.86057010    -0.38200
N3012       N  0.51461354  0.53425136  0.81844365    -0.38200
C3013       C  0.97658144  0.81610387  0.69154321    -0.04800
C3014       C  0.98302497  0.79611639  0.70879513    -0.01900
C3015       C  0.95789907  0.76949256  0.72317419     0.03000
C3016       C  0.92561542  0.76147165  0.71964025    -0.04800
C3017       C  0.91908360  0.77887959  0.69909257    -0.01900
C3018       C  0.94427062  0.80707416  0.68676930     0.03000
C3019       C  0.51548658  0.80229789  0.71140242     0.37700
C3020       C  0.88657056  0.76816306  0.69001163     0.37700
C3021       C  0.93642663  0.82760315  0.67050534     0.36100
C3022       C  0.96562152  0.74976613  0.74069597     0.36100
N3023       N  0.92991807  0.84387569  0.65778447    -0.38700
N3024       N  0.97192823  0.73406055  0.75451592    -0.38700
N3025       N  0.86086847  0.75969448  0.68218377    -0.38200
N3026       N  0.54133987  0.80713528  0.71349189    -0.38200
C3027       C  0.58683889  0.91104389  0.69685127    -0.04800
C3028       C  0.58779654  0.90900285  0.72703774    -0.01900
C3029       C  0.61580025  0.93034979  0.74226077     0.03000
C3030       C  0.64196792  0.95605248  0.72818755    -0.04800
C3031       C  0.64231510  0.95668617  0.69820456    -0.01900
C3032       C  0.61552287  0.93349309  0.68259205     0.03000
C3033       C  0.55984664  0.88630277  0.74325377     0.37700
C3034       C  0.67061582  0.48095358  0.68336225     0.37700
C3035       C  0.61822229  0.93251515  0.65189992     0.36100
C3036       C  0.61700616  0.92616141  0.77268309     0.36100
N3037       N  0.62061343  0.93167331  0.62746891    -0.38700
N3038       N  0.61766423  0.92197045  0.79680725    -0.38700
N3039       N  0.69317755  0.50022700  0.67146057    -0.38200
N3040       N  0.53776459  0.86846176  0.75655190    -0.38200
C3041       C  0.52011491  0.89187405  0.61013689    -0.04800
C3042       C  0.49703560  0.86874081  0.59105136    -0.01900
C3043       C  0.49589858  0.87675985  0.56242066     0.03000
C3044       C  0.51934753  0.90714384  0.55157083    -0.04800
C3045       C  0.54062840  0.93094468  0.57083639    -0.01900
C3046       C  0.54033558  0.92373306  0.59999831     0.03000
C3047       C  0.47537921  0.83572191  0.59973240     0.37700
C3048       C  0.56294620  0.96312447  0.56068584     0.37700
C3049       C  0.56088504  0.94957633  0.61932567     0.36100
C3050       C  0.97144230  0.85251800  0.54392437     0.36100
N3051       N  0.57725866  0.97037822  0.63459335    -0.38700
N3052       N  0.95181512  0.83309014  0.52941494    -0.38700
N3053       N  0.58067091  0.98881325  0.55261772    -0.38200
N3054       N  0.95810136  0.80927538  0.60623171    -0.38200
C3055       C  0.58303602  0.57158569  0.70322581    -0.04800
C3056       C  0.61323086  0.58068812  0.69091886    -0.01900
C3057       C  0.63812616  0.58172812  0.70746393     0.03000
C3058       C  0.63348920  0.57365284  0.73683864    -0.04800
C3059       C  0.60353725  0.56593967  0.74928928    -0.01900
C3060       C  0.57842696  0.56377365  0.73247569     0.03000
C3061       C  0.61924159  0.58941386  0.66108091     0.37700
C3062       C  0.59780431  0.56035298  0.77963587     0.37700
C3063       C  0.54708548  0.55175787  0.74531025     0.36100
C3064       C  0.66883213  0.59220372  0.69394539     0.36100
N3065       N  0.52195347  0.54210597  0.75519902    -0.38700
N3066       N  0.69325954  0.60070442  0.68299541    -0.38700
N3067       N  0.59301489  0.55616144  0.80380175    -0.38200
N3068       N  0.62412559  0.59614118  0.63727042    -0.38200
C3069       C  0.94057706  0.59342241  0.72520258    -0.04800
C3070       C  0.93330068  0.57633945  0.69929628    -0.01900
C3071       C  0.95655492  0.57200670  0.68529454     0.03000
C3072       C  0.98814305  0.58581569  0.69653301    -0.04800
C3073       C  0.49649439  0.60690218  0.72017927    -0.01900
C3074       C  0.97285665  0.61072540  0.73430930     0.03000
C3075       C  0.90173818  0.56283315  0.68682862     0.37700
C3076       C  0.52950440  0.62550708  0.72965007     0.37700
C3077       C  0.98185898  0.63289456  0.75810865     0.36100
C3078       C  0.94696216  0.55242923  0.65964516     0.36100
N3079       N  0.98901203  0.65043589  0.77717429    -0.38700
N3080       N  0.93916211  0.53713886  0.63904309    -0.38700
N3081       N  0.55586058  0.64051384  0.73715175    -0.38200
N3082       N  0.87694051  0.55265690  0.67624075    -0.38200
C3083       C  0.52696459  0.55853740  0.61127948    -0.04800
C3084       C  0.52510366  0.58163639  0.59459497    -0.01900
C3085       C  0.51747013  0.57590367  0.56565405     0.03000
C3086       C  0.51511096  0.54848422  0.55204665    -0.04800
C3087       C  0.51673046  0.52516064  0.56877361    -0.01900
C3088       C  0.52220640  0.52998451  0.59843407     0.03000
C3089       C  0.53164466  0.61196919  0.60711102     0.37700
C3090       C  0.51005272  0.49513324  0.55583512     0.37700
C3091       C  0.52129407  0.50498397  0.61591534     0.36100
C3092       C  0.51172684  0.59857669  0.55049356     0.36100
N3093       N  0.52022603  0.48497560  0.63005420    -0.38700
N3094       N  0.50659412  0.61658304  0.53905221    -0.38700
N3095       N  0.50407276  0.97104964  0.54529460    -0.38200
N3096       N  0.53684037  0.63610337  0.61700204    -0.38200
loop_ 
_geom_bond_atom_site_label_1 
_geom_bond_atom_site_label_2 
_geom_bond_distance 
_geom_bond_site_symmetry_2 
_ccdc_geom_bond_type 
C1            N2   1.350       .  A
C1            N6   1.358       .  A
C1          C761   1.481       .  S
N2            C3   1.348       .  A
C3            N4   1.361       .  A
C3         C2298   1.506   1_455  S
N4            C5   1.368       .  A
C5            N6   1.365       .  A
C5          C733   1.508       .  S
C7            N8   1.361       .  A
C7           N12   1.358   1_455  A
C7          C719   1.512       .  S
N8            C9   1.362       .  A
C9           N10   1.357       .  A
C9          C705   1.509       .  S
N10          C11   1.355       .  A
C11          N12   1.357   1_455  A
C11        C2239   1.500   1_455  S
C13          N14   1.359       .  A
C13          N18   1.357       .  A
C13         C677   1.491       .  S
N14        C1563   1.354       .  A
C15        N1562   1.354       .  A
C15        N1564   1.348       .  A
C15         C663   1.462   1_655  S
N16          C17   1.349       .  A
N16        C1563   1.348       .  A
C17          N18   1.352       .  A
C17         C652   1.457       .  S
O19         Cr37   2.022       .  S
O19          C27   1.271       .  A
O20         Cr37   1.976       .  S
O20          C21   1.261       .  A
C21          C49   1.472       .  S
C21          O22   1.268       .  A
O22         Cr38   2.011       .  S
O23         Cr38   1.978       .  S
O23          C24   1.257       .  A
C24         C621   1.490       .  S
C24          O25   1.263       .  A
O25         Cr39   2.011       .  S
O26         Cr39   1.975       .  S
O26          C27   1.264       .  A
C27          C65   1.473       .  S
O28         Cr37   1.995       .  S
O28          C36   1.260   1_545  A
O29         Cr37   2.011       .  S
O29          C30   1.264       .  A
C30         C747   1.496       .  S
C30          O31   1.255       .  A
O31         Cr38   1.966       .  S
O32         Cr38   2.006       .  S
O32          C33   1.267       .  A
C33         C680   1.479       .  S
C33          O34   1.263       .  A
O34         Cr39   1.974       .  S
O35        Cr813   2.017       .  S
O35         C810   1.265       .  A
C36        C1412   1.506       .  S
C36         O809   1.265       .  A
Cr37         O40   1.783       .  S
Cr38         O40   1.781       .  S
Cr39        O809   2.017   1_545  S
Cr39         O40   1.779       .  S
O41         Cr59   2.023       .  S
O41          C49   1.274       .  A
O42         Cr59   1.947       .  S
O42          C43   1.254       .  A
C43          C71   1.462       .  S
C43          O44   1.265       .  A
O44         Cr60   2.012       .  S
O45         Cr60   1.986       .  S
O45          C46   1.260       .  A
C46         C593   1.506       .  S
C46          O47   1.266       .  A
O47         Cr61   2.009       .  S
O48         Cr61   1.973       .  S
O48          C49   1.264       .  A
O50         Cr59   1.965       .  S
O50          C58   1.251       .  A
O51         Cr59   2.020       .  S
O51          C52   1.268       .  A
C52         C610   1.514       .  S
C52          O53   1.256       .  A
O53         Cr60   1.968       .  S
O54         Cr60   2.005       .  S
O54          C55   1.267       .  A
C55         C649   1.469       .  S
C55          O56   1.261       .  A
O56         Cr61   1.959       .  S
O57         Cr61   2.018       .  S
O57          C58   1.264       .  A
C58         C694   1.510       .  S
Cr59         O62   1.771       .  S
Cr60         O62   1.780       .  S
Cr61         O62   1.774       .  S
O63         Cr81   1.953       .  S
O63          C71   1.257       .  A
O64         Cr81   2.026       .  S
O64          C65   1.274       .  A
C65          O66   1.264       .  A
O66         Cr82   1.973       .  S
O67         Cr82   2.009       .  S
O67          C68   1.262       .  A
C68         C579   1.502       .  S
C68          O69   1.259       .  A
O69         Cr83   1.982       .  S
O70         Cr83   2.008       .  S
O70          C71   1.264       .  A
O72         Cr81   2.017       .  S
O72          C80   1.268       .  A
O73         Cr81   1.970       .  S
O73          C74   1.254   1_545  A
C74        C1482   1.488       .  S
C74         O849   1.263       .  A
O75        Cr856   2.014       .  S
O75         C848   1.263       .  A
O76         Cr82   1.963   1_565  S
O76          C77   1.260   1_565  A
C77         C666   1.460   1_545  S
C77          O78   1.266       .  A
O78         Cr83   2.002       .  S
O79         Cr83   1.967       .  S
O79          C80   1.257       .  A
C80         C736   1.519       .  S
Cr81         O84   1.769       .  S
Cr82        O849   2.014   1_545  S
Cr82         O84   1.776       .  S
Cr83         O84   1.773       .  S
C85          N86   1.372       .  A
C85          N90   1.367       .  A
C85         C565   1.527       .  S
N86          C87   1.368       .  A
C87          N88   1.355       .  A
C87         C635   1.525       .  S
N88          C89   1.354       .  A
C89          N90   1.361       .  A
C89         C607   1.497       .  S
C91          N92   1.359       .  A
C91          N96   1.358       .  A
C91         C551   1.522       .  S
N92          C93   1.360       .  A
C93          N94   1.358       .  A
C93         C537   1.495       .  S
N94          C95   1.358       .  A
C95          N96   1.358       .  A
C95         C523   1.477       .  S
C97          N98   1.361       .  A
C97         N102   1.356       .  A
C97         C512   1.520       .  S
N98          C99   1.360       .  A
C99         N100   1.360       .  A
C99         C495   1.482       .  S
N100        C101   1.358       .  A
C101        N102   1.356       .  A
C101        C484   1.491       .  S
C103        N104   1.354       .  A
C103        N108   1.354       .  A
C103        C467   1.483       .  S
N104        C105   1.355       .  A
C105        N106   1.355       .  A
C105        C453   1.490       .  S
N106        C107   1.354       .  A
C107        N108   1.353       .  A
C107        C439   1.475       .  S
O109      Cr1675   1.943       .  S
O109        C117   1.252       .  A
O110       Cr127   2.011       .  S
O110        C111   1.269       .  A
C111        C139   1.468       .  S
C111        O112   1.257       .  A
O112       Cr128   1.971       .  S
O113       Cr128   2.028       .  S
O113        C114   1.271       .  A
C114        C722   1.499       .  S
C114        O115   1.258       .  A
O115      Cr1677   1.969       .  S
O116       Cr129   2.019       .  S
O116        C117   1.266       .  A
C117        C155   1.458       .  S
O118      Cr1675   2.024       .  S
O118        C126   1.269       .  A
O119       Cr127   1.944       .  S
O119        C120   1.251       .  A
C120        C540   1.514       .  S
C120        O121   1.274       .  A
O121       Cr128   2.038       .  S
O122       Cr128   1.951       .  S
O122        C123   1.256       .  A
C123        C470   1.499       .  S
C123        O124   1.267       .  A
O124      Cr1677   2.013       .  S
O125       Cr129   1.967       .  S
O125        C126   1.257       .  A
C126        C498   1.492       .  S
Cr127      O1657   1.943   1_455  S
Cr127      O1666   2.024       .  S
Cr127       O130   1.766       .  S
Cr128       O130   1.772       .  S
Cr129      O1663   1.969       .  S
Cr129      O1672   2.013       .  S
Cr129      O1678   1.765       .  S
O130      Cr1677   1.765       .  S
O131       Cr923   1.966       .  S
O131        C139   1.258       .  A
O132      Cr2471   2.043       .  S
O132        C133   1.277       .  A
C133        C161   1.477       .  S
C133        O908   1.256       .  A
O134       Cr150   1.959       .  S
O134        C907   1.256       .  A
O135      Cr1698   1.982   1_455  S
O135        C136   1.259       .  A
C136        C764   1.492       .  S
C136        O137   1.261       .  A
O137       Cr151   1.986       .  S
O138       Cr151   2.011       .  S
O138        C913   1.266       .  A
C139        O912   1.266       .  A
O140       Cr149   2.021       .  S
O140        C148   1.270       .  A
O141      Cr1697   1.964       .  S
O141        C142   1.251       .  A
C142        C481   1.512       .  S
C142        O143   1.262       .  A
O143       Cr150   2.014       .  S
O144      Cr1698   1.969   1_455  S
O144        C145   1.262       .  A
C145        C442   1.499       .  S
C145        O146   1.267       .  A
O146       Cr151   2.003       .  S
O147       Cr151   1.967       .  S
O147        C148   1.256       .  A
C148        C428   1.506       .  S
Cr149       O905   1.966       .  S
Cr149      O2454   2.043   1_455  S
Cr149      O1689   1.964       .  S
Cr149       O152   1.779       .  S
Cr150      O1683   1.982       .  S
Cr150      O1692   1.969       .  S
Cr150      O1700   1.781       .  S
Cr151       O152   1.778       .  S
O152      Cr1698   1.781   1_455  S
O153       Cr171   2.012       .  S
O153        C161   1.264       .  A
O154       Cr171   1.950       .  S
O154        C155   1.260       .  A
C155        O156   1.269       .  A
O156       Cr172   2.017       .  S
O157       Cr172   1.995       .  S
O157        C158   1.265       .  A
C158        C568   1.507       .  S
C158        O159   1.264       .  A
O159       Cr173   2.010       .  S
O160       Cr173   1.989       .  S
O160        C161   1.266       .  A
O162       Cr171   1.968       .  S
O162        C170   1.257       .  A
O163       Cr171   2.001       .  S
O163        C164   1.258       .  A
C164        C414   1.498       .  S
C164        O165   1.259       .  A
O165       Cr172   1.988       .  S
O166       Cr172   1.996       .  S
O166        C167   1.264       .  A
C167        C456   1.473       .  S
C167        O168   1.262       .  A
O168       Cr173   1.970       .  S
O169       Cr173   2.014       .  S
O169        C170   1.266       .  A
C170        C526   1.484       .  S
Cr171       O174   1.778       .  S
Cr172       O174   1.778       .  S
Cr173       O174   1.775       .  S
C175        N176   1.363       .  A
C175        N180   1.361       .  A
C175        C397   1.490       .  S
N176        C177   1.365       .  A
C177        N178   1.360       .  A
C177        C411   1.515       .  S
N178        C179   1.358       .  A
C179        N180   1.357       .  A
C179        C425   1.491       .  S
C181        N182   1.363       .  A
C181        N186   1.363       .  A
C181        C624   1.505       .  S
N182        C183   1.360   1_556  A
C183        N184   1.355       .  A
C183       C1143   1.482   1_545  S
N184        C185   1.356       .  A
C185        N186   1.360   1_554  A
C185        C386   1.482       .  S
C187        N188   1.368       .  A
C187        N192   1.362       .  A
C187        C596   1.529       .  S
N188        C189   1.365   1_556  A
C189        N190   1.359       .  A
C189        C341   1.502       .  S
N190        C191   1.353       .  A
C191        N192   1.359   1_554  A
C191        C355   1.505       .  S
C193        N194   1.356       .  A
C193        N198   1.352       .  A
C193        C299   1.479       .  S
N194        C195   1.357       .  A
C195        N196   1.356       .  A
C195        C327   1.494       .  S
N196        C197   1.354       .  A
C197        N198   1.354       .  A
C197        C316   1.478       .  S
O199       Cr217   2.017       .  S
O199        C207   1.272       .  A
O200       Cr217   1.961       .  S
O200        C201   1.255       .  A
C201        C251   1.472       .  S
C201        O202   1.269       .  A
O202       Cr218   2.026       .  S
O203       Cr218   1.981       .  S
O203        C204   1.262       .  A
C204        C509   1.499       .  S
C204        O205   1.266       .  A
O205       Cr219   2.009       .  S
O206       Cr219   1.963       .  S
O206        C207   1.257       .  A
C207        C223   1.468       .  S
O208       Cr217   1.966       .  S
O208        C216   1.253       .  A
O209       Cr217   2.011       .  S
O209        C210   1.266       .  A
C210       C1931   1.489   1_455  S
C210        O211   1.259   1_455  A
O211       Cr218   1.976   1_655  S
O212      Cr1766   2.016       .  S
O212        C213   1.267       .  A
C213        C330   1.507       .  S
C213        O214   1.259       .  A
O214      Cr1767   1.961       .  S
O215       Cr219   2.024       .  S
O215        C216   1.268       .  A
C216       C1906   1.520   1_455  S
Cr217       O220   1.775       .  S
Cr218      O1760   2.016   1_455  S
Cr218       O220   1.768       .  S
Cr219      O1762   1.961   1_455  S
Cr219       O220   1.777       .  S
O221       Cr239   2.025       .  S
O221        C229   1.276       .  A
O222       Cr239   1.967       .  S
O222        C223   1.258       .  A
C223        O224   1.266       .  A
O224       Cr240   2.009       .  S
O225       Cr240   1.981       .  S
O225        C226   1.259       .  A
C226        C554   1.497       .  S
C226        O227   1.263       .  A
O227       Cr241   2.008       .  S
O228       Cr241   1.963       .  S
O228        C229   1.259       .  A
C229        C245   1.470       .  S
O230       Cr239   1.970       .  S
O230        C238   1.252       .  A
O231       Cr239   2.007       .  S
O231        C232   1.266       .  A
C232        C288   1.509       .  S
C232        O233   1.257       .  A
O233       Cr240   1.963       .  S
O234       Cr240   2.013       .  S
O234        C235   1.269       .  A
C235        C313   1.502       .  S
C235        O236   1.260       .  A
O236       Cr241   1.961       .  S
O237       Cr241   2.019       .  S
O237        C238   1.263       .  A
C238        C372   1.492       .  S
Cr239       O242   1.775       .  S
Cr240       O242   1.768       .  S
Cr241       O242   1.785       .  S
O243       Cr261   2.021       .  S
O243        C251   1.275       .  A
O244       Cr261   1.964       .  S
O244        C245   1.256       .  A
C245        O246   1.267       .  A
O246       Cr262   2.010       .  S
O247       Cr262   2.004       .  S
O247        C248   1.265       .  A
C248        C400   1.507       .  S
C248        O249   1.255       .  A
O249       Cr263   1.978       .  S
O250       Cr263   1.974       .  S
O250        C251   1.262       .  A
O252       Cr261   1.963       .  S
O252        C260   1.248       .  A
O253       Cr261   2.004       .  S
O253        C254   1.263       .  A
C254        C344   1.515       .  S
C254        O255   1.258       .  A
O255       Cr262   1.978       .  S
O256       Cr262   1.991       .  S
O256        C257   1.266       .  A
C257        C302   1.499       .  S
C257        O258   1.269       .  A
O258       Cr263   1.988       .  S
O259       Cr263   2.003       .  S
O259        C260   1.257       .  A
C260        C271   1.506       .  S
Cr261       O264   1.787       .  S
Cr262       O264   1.785       .  S
Cr263       O264   1.791       .  S
C265        N266   1.362       .  A
C265        N270   1.357       .  A
C265        C582   1.519       .  S
N266        C267   1.363   1_556  A
C267        N268   1.357       .  A
C267       C1059   1.498   1_545  S
N268        C269   1.352       .  A
C269        N270   1.355   1_554  A
C269        C274   1.489       .  S
C271        C272   1.422       .  A
C271        C276   1.425       .  A
C272        C273   1.415       .  A
C272        C277   1.452       .  S
C273        C274   1.414       .  A
C273        C280   1.451       .  S
C274        C275   1.411       .  A
C275        C276   1.407       .  A
C275        C278   1.455       .  S
C276        C279   1.451       .  S
C277        N284   1.157       .  T
C278        N283   1.157   1_554  T
C279        N281   1.157       .  T
C280        N282   1.158       .  T
C285       C1041   1.498       .  S
C285        C286   1.417       .  A
C285        C290   1.413       .  A
C286        C287   1.411       .  A
C286       C1065   1.453       .  S
C287        C288   1.425       .  A
C287        C294   1.455       .  S
C288        C289   1.422       .  A
C289        C290   1.415       .  A
C289        C292   1.451       .  S
C290        C293   1.452       .  S
C291       C1060   1.453   1_545  S
C291        N298   1.157       .  T
C292        N297   1.158       .  T
C293        N295   1.157   1_554  T
C294        N296   1.157       .  T
C299        C300   1.404       .  A
C299        C304   1.413       .  A
C300        C301   1.407       .  A
C300        C305   1.454       .  S
C301        C302   1.428       .  A
C301        C308   1.453       .  S
C302        C303   1.418       .  A
C303        C304   1.410       .  A
C303        C306   1.450       .  S
C304        C307   1.453       .  S
C305        N312   1.157       .  T
C306        N311   1.157       .  T
C307        N309   1.157       .  T
C308        N310   1.158       .  T
C313        C318   1.426       .  A
C313       C1088   1.426       .  A
C314        C315   1.408       .  A
C314       C1087   1.426   1_545  A
C314       C1093   1.453   1_545  S
C315        C316   1.412       .  A
C315        C322   1.455       .  S
C316        C317   1.407       .  A
C317       C1092   1.407   1_545  A
C317        C320   1.455       .  S
C318       C1091   1.407       .  A
C318        C321   1.451       .  S
C319       C1088   1.453       .  S
C319        N326   1.157       .  T
C320        N325   1.157       .  T
C321        N323   1.157       .  T
C322        N324   1.158       .  T
C327        C328   1.414       .  A
C327        C332   1.417       .  A
C328        C329   1.411       .  A
C328        C333   1.454       .  S
C329        C330   1.424       .  A
C329        C336   1.453       .  S
C330        C331   1.424       .  A
C331        C332   1.409       .  A
C331        C334   1.453       .  S
C332        C335   1.454       .  S
C333        N340   1.158       .  T
C334        N339   1.157       .  T
C335        N337   1.158       .  T
C336        N338   1.158       .  T
C341        C342   1.416       .  A
C341        C346   1.414       .  A
C342        C343   1.422       .  A
C342        C347   1.450   1_554  S
C343        C344   1.422       .  A
C343        C350   1.451       .  S
C344        C345   1.424       .  A
C345        C346   1.411       .  A
C345        C348   1.451       .  S
C346        C349   1.455       .  S
C347        N354   1.157       .  T
C348        N353   1.156       .  T
C349        N351   1.158       .  T
C350        N352   1.157       .  T
C355        C356   1.413       .  A
C355        C360   1.418       .  A
C356        C357   1.413       .  A
C356        C361   1.454       .  S
C357        C358   1.429       .  A
C357        C364   1.452       .  S
C358       C1764   1.520       .  S
C358        C359   1.422       .  A
C359        C360   1.420       .  A
C359        C362   1.451       .  S
C360        C363   1.452       .  S
C361        N368   1.158   1_554  T
C362        N367   1.157       .  T
C363        N365   1.157       .  T
C364        N366   1.157       .  T
C369        C957   1.482       .  S
C369        C370   1.412       .  A
C369        C374   1.408       .  A
C370        C371   1.417       .  A
C370        C375   1.449       .  S
C371        C372   1.414       .  A
C371        C378   1.449       .  S
C372        C373   1.418       .  A
C373        C374   1.409       .  A
C373        C376   1.450       .  S
C374        C377   1.452       .  S
C375        N382   1.157       .  T
C376        N381   1.156       .  T
C377        N379   1.157       .  T
C378        N380   1.157       .  T
C383       C1758   1.489       .  S
C383        C384   1.417       .  A
C383        C388   1.414       .  A
C384        C385   1.408       .  A
C384        C389   1.449       .  S
C385        C386   1.407       .  A
C385        C392   1.453       .  S
C386        C387   1.412       .  A
C387        C388   1.416       .  A
C387        C390   1.449       .  S
C388       C1939   1.450       .  S
C389        N396   1.156       .  T
C390        N395   1.157   1_554  T
C391       C1936   1.450   1_455  S
C391        N393   1.157       .  T
C392        N394   1.157       .  T
C397        C398   1.405       .  A
C397        C402   1.416       .  A
C398        C399   1.407       .  A
C398        C403   1.452       .  S
C399        C400   1.427       .  A
C399        C406   1.453       .  S
C400        C401   1.415       .  A
C401        C402   1.422       .  A
C401        C404   1.448       .  S
C402        C405   1.449       .  S
C403        N410   1.157       .  T
C404        N409   1.157       .  T
C405        N407   1.157       .  T
C406        N408   1.158       .  T
C411        C412   1.426       .  A
C411        C416   1.423       .  A
C412        C413   1.415       .  A
C412        C417   1.452       .  S
C413        C414   1.409       .  A
C413        C420   1.452       .  S
C414        C415   1.416       .  A
C415        C416   1.416       .  A
C415        C418   1.452       .  S
C416        C419   1.451       .  S
C417        N424   1.157       .  T
C418        N423   1.157       .  T
C419        N421   1.157       .  T
C420        N422   1.157       .  T
C425        C426   1.408       .  A
C425        C430   1.414       .  A
C426        C427   1.410       .  A
C426        C431   1.455       .  S
C427        C428   1.424       .  A
C427        C434   1.447       .  S
C428        C429   1.417       .  A
C429        C430   1.418       .  A
C429        C432   1.451       .  S
C430        C433   1.447       .  S
C431        N438   1.158       .  T
C432        N437   1.158       .  T
C433        N435   1.156       .  T
C434        N436   1.155       .  T
C439        C440   1.411       .  A
C439        C444   1.406       .  A
C440        C441   1.407       .  A
C440        C445   1.455       .  S
C441        C442   1.421       .  A
C441        C448   1.449       .  S
C442        C443   1.427       .  A
C443        C444   1.408       .  A
C443        C446   1.453       .  S
C444        C447   1.453       .  S
C445        N452   1.157       .  T
C446        N451   1.158       .  T
C447        N449   1.157       .  T
C448        N450   1.156       .  T
C453        C454   1.421       .  A
C453        C458   1.419       .  A
C454        C455   1.407       .  A
C454        C459   1.453       .  S
C455        C456   1.408       .  A
C455        C462   1.450       .  S
C456        C457   1.408       .  A
C457        C458   1.407       .  A
C457        C460   1.453       .  S
C458        C461   1.452       .  S
C459        N466   1.158       .  T
C460        N465   1.157       .  T
C461        N463   1.157       .  T
C462        N464   1.156       .  T
C467        C468   1.412       .  A
C467        C472   1.414       .  A
C468        C469   1.408       .  A
C468        C473   1.454       .  S
C469        C470   1.421       .  A
C469        C476   1.452       .  S
C470        C471   1.424       .  A
C471        C472   1.406       .  A
C471        C474   1.453       .  S
C472        C475   1.455       .  S
C473        N480   1.157       .  T
C474        N479   1.157       .  T
C475        N477   1.158       .  T
C476        N478   1.157       .  T
C481        C482   1.427       .  A
C481        C486   1.423       .  A
C482        C483   1.410       .  A
C482        C487   1.451       .  S
C483        C484   1.410       .  A
C483        C490   1.455       .  S
C484        C485   1.412       .  A
C485        C486   1.418       .  A
C485        C488   1.451       .  S
C486        C489   1.450       .  S
C487       N2042   1.157       .  T
C488        N493   1.157       .  T
C489        N491   1.157       .  T
C490        N492   1.158       .  T
N494       C2035   1.157       .  T
C495        C496   1.412       .  A
C495       C2048   1.408       .  A
C496        C497   1.417       .  A
C496        C501   1.449       .  S
C497        C498   1.415       .  A
C497        C504   1.449       .  S
C498       C2047   1.418       .  A
C499        C500   1.408       .  A
C499       C2046   1.418       .  A
C499        C502   1.450       .  S
C500       C2043   1.408       .  A
C500        C503   1.453       .  S
C501        N508   1.157       .  T
C502        N507   1.156       .  T
C503        N505   1.157       .  T
C504        N506   1.157       .  T
C509        C510   1.414       .  A
C509        C514   1.414       .  A
C510        C511   1.415       .  A
C510        C515   1.452       .  S
C511       C2060   1.427       .  A
C511        C518   1.453       .  S
C512        C513   1.430       .  A
C512       C2059   1.427       .  A
C513       C2062   1.414       .  A
C513        C516   1.453       .  S
C514       C2061   1.414       .  A
C514        C517   1.454       .  S
C515        N522   1.157       .  T
C516        N521   1.158       .  T
C517        N519   1.158       .  T
C518        N520   1.158       .  T
C523        C524   1.409       .  A
C523        C528   1.410       .  A
C524        C525   1.408       .  A
C524        C529   1.453       .  S
C525        C526   1.416       .  A
C525        C532   1.451       .  S
C526        C527   1.414       .  A
C527        C528   1.413       .  A
C527        C530   1.450       .  S
C528        C531   1.450       .  S
C529        N536   1.157       .  T
C530        N535   1.157       .  T
C531       N1307   1.157       .  T
C532        N534   1.157       .  T
N533       C1305   1.157   1_545  T
C537        C538   1.416       .  A
C537        C542   1.410       .  A
C538        C539   1.420       .  A
C538        C543   1.450       .  S
C539        C540   1.420       .  A
C539        C546   1.450       .  S
C540        C541   1.429       .  A
C541        C542   1.407       .  A
C541        C544   1.453       .  S
C542        C545   1.456       .  S
C543       N1324   1.157       .  T
C544        N549   1.157       .  T
C545        N547   1.158       .  T
C546       N1322   1.157       .  T
N548       C1320   1.157   1_545  T
N550       C1317   1.157       .  T
C551        C552   1.430       .  A
C551        C556   1.429       .  A
C552        C553   1.416       .  A
C552        C557   1.452       .  S
C553        C554   1.411       .  A
C553        C560   1.453       .  S
C554        C555   1.413       .  A
C555        C556   1.415       .  A
C555        C558   1.454       .  S
C556        C559   1.453       .  S
C557        N564   1.158       .  T
C558        N563   1.157       .  T
C559        N561   1.158       .  T
C560        N562   1.158       .  T
C565        C566   1.427       .  A
C565        C570   1.425       .  A
C566        C567   1.419       .  A
C566        C571   1.449       .  S
C567        C568   1.414       .  A
C567        C574   1.453       .  S
C568        C569   1.413       .  A
C569        C570   1.422       .  A
C569        C572   1.451       .  S
C570        C573   1.450       .  S
C571        N578   1.157       .  T
C572        N577   1.158       .  T
C573        N575   1.157       .  T
C574        N576   1.157       .  T
C579        C580   1.417       .  A
C579        C584   1.417       .  A
C580        C581   1.416       .  A
C580        C585   1.453       .  S
C581        C582   1.425       .  A
C581        C588   1.452       .  S
C582        C583   1.429       .  A
C583        C584   1.414       .  A
C583        C586   1.454       .  S
C584        C587   1.455       .  S
C585        N592   1.157   1_545  T
C586        N591   1.158       .  T
C587        N589   1.158       .  T
C588        N590   1.158   1_545  T
C593        C594   1.417       .  A
C593        C598   1.411       .  A
C594        C595   1.421       .  A
C594        C599   1.452       .  S
C595        C596   1.429       .  A
C595        C602   1.451       .  S
C596        C597   1.432       .  A
C597        C598   1.414       .  A
C597        C600   1.452       .  S
C598        C601   1.455       .  S
C599        N606   1.158       .  T
C600        N605   1.158       .  T
C601        N603   1.158       .  T
C602        N604   1.158       .  T
C607        C608   1.413       .  A
C607        C612   1.411       .  A
C608        C609   1.421       .  A
C608        C613   1.449       .  S
C609        C610   1.421       .  A
C609        C616   1.449       .  S
C610        C611   1.424       .  A
C611        C612   1.410       .  A
C611        C614   1.451       .  S
C612        C615   1.453       .  S
C613        N620   1.157       .  T
C614        N619   1.157       .  T
C615        N617   1.158       .  T
C616        N618   1.157       .  T
C621        C622   1.406       .  A
C621        C626   1.413       .  A
C622        C623   1.415       .  A
C622        C627   1.447       .  S
C623        C624   1.422       .  A
C623       C1404   1.451       .  S
C624        C625   1.421       .  A
C625        C626   1.414       .  A
C625        C628   1.451       .  S
C626        C629   1.452       .  S
C627       N1408   1.156       .  T
C628        N633   1.157       .  T
C629        N631   1.157       .  T
C630       C1397   1.451       .  S
C630        N632   1.157       .  T
N634       C1401   1.156       .  T
C635        C636   1.423       .  A
C635        C640   1.430       .  A
C636        C637   1.422       .  A
C636        C641   1.450       .  S
C637        C638   1.415       .  A
C637       C1418   1.449       .  S
C638        C810   1.506       .  S
C638        C639   1.413       .  A
C639        C640   1.414       .  A
C639        C642   1.453       .  S
C640        C643   1.452       .  S
C641        N648   1.157       .  T
C642        N647   1.157       .  T
C643        N645   1.158       .  T
C644       C1411   1.449       .  S
C644        N646   1.158   1_565  T
C649        C650   1.414       .  A
C649        C654   1.411       .  A
C650        C651   1.406       .  A
C650        C655   1.450       .  S
C651        C652   1.406       .  A
C651        C658   1.451       .  S
C652        C653   1.407       .  A
C653        C654   1.399       .  A
C653        C656   1.451       .  S
C654        C657   1.450       .  S
C655        N662   1.157       .  T
C656        N661   1.156       .  T
C657        N659   1.156       .  T
C658        N660   1.157       .  T
C663        C664   1.411       .  A
C663        C668   1.406       .  A
C664        C665   1.402       .  A
C664        C669   1.450       .  S
C665       C1440   1.407       .  A
C665        C672   1.454       .  S
C666        C667   1.410       .  A
C666       C1439   1.407       .  A
C667       C1442   1.405       .  A
C667        C670   1.450       .  S
C668       C1441   1.405       .  A
C668        C671   1.450       .  S
C669       N2224   1.157       .  T
C670        N675   1.157       .  T
C671        N673   1.157       .  T
C672        N674   1.157       .  T
N676       C2217   1.157       .  T
C677        C682   1.418       .  A
C677       C1452   1.418       .  A
C678        C679   1.406       .  A
C678       C1451   1.418   1_545  A
C678        C683   1.453       .  S
C679        C680   1.410       .  A
C679        C686   1.446       .  S
C680       C1455   1.411   1_545  A
C681        C682   1.410       .  A
C681       C1454   1.411       .  A
C681        C684   1.452       .  S
C682        C685   1.452       .  S
C683       N2238   1.157       .  T
C684        N689   1.157       .  T
C685        N687   1.157       .  T
C686        N688   1.155       .  T
N690       C2231   1.157   1_455  T
C691       C1559   1.500       .  S
C691        C692   1.419       .  A
C691        C696   1.415       .  A
C692        C693   1.415       .  A
C692       C2245   1.452       .  S
C693        C694   1.419       .  A
C693        C700   1.452       .  S
C694        C695   1.424       .  A
C695        C696   1.411       .  A
C695        C698   1.452       .  S
C696        C699   1.454       .  S
C697       C2240   1.452   1_455  S
C697        N704   1.158       .  T
C698        N703   1.157       .  T
C699        N701   1.157       .  T
C700        N702   1.157       .  T
C705        C706   1.426       .  A
C705        C710   1.423       .  A
C706        C707   1.411       .  A
C706        C711   1.452       .  S
C707        C708   1.410       .  A
C707        C714   1.452       .  S
C708        C848   1.488       .  S
C708        C709   1.411       .  A
C709        C710   1.413       .  A
C709       C1486   1.452       .  S
C710        C713   1.452       .  S
C711        N718   1.158       .  T
C712       C1483   1.452       .  S
C712        N717   1.158   1_565  T
C713        N715   1.157       .  T
C714        N716   1.157       .  T
C719        C720   1.425   1_455  A
C719        C724   1.424       .  A
C720        C721   1.412       .  A
C720        C725   1.454       .  S
C721        C722   1.418   1_655  A
C721       C2276   1.455       .  S
C722        C723   1.413       .  A
C723        C724   1.415       .  A
C723        C726   1.452       .  S
C724        C727   1.451       .  S
C725       N2280   1.158       .  T
C726        N731   1.157       .  T
C727        N729   1.158       .  T
C728       C2269   1.455       .  S
C728        N730   1.158       .  T
N732       C2273   1.158       .  T
C733        C734   1.420       .  A
C733        C738   1.415       .  A
C734        C735   1.419       .  A
C734        C739   1.453       .  S
C735        C736   1.423       .  A
C735        C742   1.452       .  S
C736        C737   1.428       .  A
C737        C738   1.414       .  A
C737        C740   1.453       .  S
C738        C741   1.453       .  S
C739        N746   1.157       .  T
C740        N745   1.157       .  T
C741        N743   1.157       .  T
C742        N744   1.158       .  T
C747        C748   1.410       .  A
C747        C752   1.414       .  A
C748        C749   1.410       .  A
C748        C753   1.448       .  S
C749        C750   1.426       .  A
C749        C756   1.453       .  S
C750       C1551   1.506       .  S
C750       C2299   1.419       .  A
C751       C2298   1.419       .  A
C751       C2300   1.416       .  A
C751        C754   1.450   1_655  S
C752       C2299   1.416       .  A
C752        C755   1.452       .  S
C753        N760   1.156       .  T
C754        N759   1.158       .  T
C755        N757   1.157       .  T
C756        N758   1.157       .  T
C761        C762   1.410       .  A
C761        C766   1.413       .  A
C762        C763   1.401       .  A
C762        C767   1.456       .  S
C763        C764   1.422       .  A
C763        C770   1.454       .  S
C764        C765   1.414       .  A
C765        C766   1.417       .  A
C765        C768   1.449   1_545  S
C766        C769   1.449       .  S
C767        N774   1.157       .  T
C768       N1547   1.157       .  T
C769        N771   1.157   1_545  T
C770        N772   1.157       .  T
N773       C1542   1.157       .  T
C775        N776   1.350       .  A
C775        N780   1.358       .  A
C775       C1535   1.481       .  S
N776        C777   1.348       .  A
C777        N778   1.361       .  A
C777       C3072   1.506   1_455  S
N778        C779   1.368       .  A
C779        N780   1.365       .  A
C779       C1507   1.508       .  S
C781        N782   1.361       .  A
C781        N786   1.358   1_455  A
C781       C1493   1.512       .  S
N782        C783   1.362       .  A
C783        N784   1.357       .  A
C783       C1479   1.509       .  S
N784        C785   1.355       .  A
C785        N786   1.357   1_455  A
C785       C3013   1.500   1_455  S
C787        N788   1.359       .  A
C787        N792   1.357       .  A
C787       C1451   1.491       .  S
N788       C2337   1.354       .  A
C789       N2336   1.354       .  A
C789       N2338   1.348       .  A
C789       C1437   1.462   1_655  S
N790       C2337   1.348       .  A
N790        C791   1.349       .  A
C791        N792   1.352       .  A
C791       C1426   1.457       .  S
O793       Cr811   2.022       .  S
O793        C801   1.271       .  A
O794       Cr811   1.976       .  S
O794        C795   1.261       .  A
C795        C823   1.472       .  S
C795        O796   1.268       .  A
O796       Cr812   2.011       .  S
O797       Cr812   1.978       .  S
O797        C798   1.257       .  A
C798       C1395   1.490       .  S
C798        O799   1.263       .  A
O799       Cr813   2.011       .  S
O800       Cr813   1.975       .  S
O800        C801   1.264       .  A
C801        C839   1.473       .  S
O802       Cr811   1.995       .  S
O802        C810   1.260       .  A
O803       Cr811   2.011       .  S
O803        C804   1.264       .  A
C804       C1521   1.496       .  S
C804        O805   1.255       .  A
O805       Cr812   1.966       .  S
O806       Cr812   2.006       .  S
O806        C807   1.267       .  A
C807       C1454   1.479       .  S
C807        O808   1.263       .  A
O808       Cr813   1.974       .  S
Cr811       O814   1.783       .  S
Cr812       O814   1.781       .  S
Cr813       O814   1.779       .  S
O815       Cr833   2.023       .  S
O815        C823   1.274       .  A
O816       Cr833   1.947       .  S
O816        C817   1.254       .  A
C817        C845   1.462       .  S
C817        O818   1.265       .  A
O818       Cr834   2.012       .  S
O819       Cr834   1.986       .  S
O819        C820   1.260       .  A
C820       C1367   1.506       .  S
C820        O821   1.266       .  A
O821       Cr835   2.009       .  S
O822       Cr835   1.973       .  S
O822        C823   1.264       .  A
O824       Cr833   1.965       .  S
O824        C832   1.251       .  A
O825       Cr833   2.020       .  S
O825        C826   1.268       .  A
C826       C1384   1.514       .  S
C826        O827   1.256       .  A
O827       Cr834   1.968       .  S
O828       Cr834   2.005       .  S
O828        C829   1.267       .  A
C829       C1423   1.469       .  S
C829        O830   1.261       .  A
O830       Cr835   1.959       .  S
O831       Cr835   2.018       .  S
O831        C832   1.264       .  A
C832       C1468   1.510       .  S
Cr833       O836   1.771       .  S
Cr834       O836   1.780       .  S
Cr835       O836   1.774       .  S
O837       Cr855   1.953       .  S
O837        C845   1.257       .  A
O838       Cr855   2.026       .  S
O838        C839   1.274       .  A
C839        O840   1.264       .  A
O840       Cr856   1.973       .  S
O841       Cr856   2.009       .  S
O841        C842   1.262       .  A
C842       C1353   1.502       .  S
C842        O843   1.259       .  A
O843       Cr857   1.982       .  S
O844       Cr857   2.008       .  S
O844        C845   1.264       .  A
O846       Cr855   2.017       .  S
O846        C854   1.268       .  A
O847       Cr855   1.970       .  S
O847        C848   1.254       .  A
O850       Cr856   1.963       .  S
O850        C851   1.260       .  A
C851       C1440   1.460       .  S
C851        O852   1.266       .  A
O852       Cr857   2.002       .  S
O853       Cr857   1.967       .  S
O853        C854   1.257       .  A
C854       C1510   1.519       .  S
Cr855       O858   1.769       .  S
Cr856       O858   1.776       .  S
Cr857       O858   1.773       .  S
C859        N860   1.372       .  A
C859        N864   1.367       .  A
C859       C1339   1.527       .  S
N860        C861   1.368       .  A
C861        N862   1.355       .  A
C861       C1409   1.525       .  S
N862        C863   1.354       .  A
C863        N864   1.361       .  A
C863       C1381   1.497       .  S
C865        N866   1.359       .  A
C865        N870   1.358       .  A
C865       C1325   1.522       .  S
N866        C867   1.360       .  A
C867        N868   1.358       .  A
C867       C1311   1.495       .  S
N868        C869   1.358       .  A
C869        N870   1.358       .  A
C869       C1297   1.477       .  S
C871        N872   1.361       .  A
C871        N876   1.356       .  A
C871       C1286   1.520       .  S
N872        C873   1.360       .  A
C873        N874   1.360       .  A
C873       C1269   1.482       .  S
N874        C875   1.358       .  A
C875        N876   1.356       .  A
C875       C1258   1.491       .  S
C877        N878   1.354       .  A
C877        N882   1.354       .  A
C877       C1241   1.483       .  S
N878        C879   1.355       .  A
C879        N880   1.355       .  A
C879       C1227   1.490       .  S
N880        C881   1.354       .  A
C881        N882   1.353       .  A
C881       C1213   1.475       .  S
O883      Cr2449   1.943       .  S
O883        C891   1.252       .  A
O884       Cr901   2.011       .  S
O884        C885   1.269       .  A
C885        C913   1.468   1_565  S
C885        O886   1.257       .  A
O886       Cr902   1.971       .  S
O887       Cr902   2.028       .  S
O887        C888   1.271       .  A
C888       C1496   1.499       .  S
C888        O889   1.258       .  A
O889      Cr2451   1.969       .  S
O890       Cr903   2.019       .  S
O890        C891   1.266       .  A
C891        C929   1.458       .  S
O892      Cr2449   2.024       .  S
O892        C900   1.269       .  A
O893       Cr901   1.944       .  S
O893        C894   1.251       .  A
C894       C1314   1.514       .  S
C894        O895   1.274       .  A
O895       Cr902   2.038       .  S
O896       Cr902   1.951       .  S
O896        C897   1.256       .  A
C897       C1244   1.499       .  S
C897        O898   1.267       .  A
O898      Cr2451   2.013       .  S
O899       Cr903   1.967       .  S
O899        C900   1.257       .  A
C900       C1272   1.492       .  S
Cr901      O2431   1.943   1_455  S
Cr901      O2440   2.024       .  S
Cr901       O904   1.766       .  S
Cr902       O904   1.772       .  S
Cr903      O2437   1.969       .  S
Cr903      O2446   2.013       .  S
Cr903      O2452   1.765       .  S
O904      Cr2451   1.765       .  S
O905        C913   1.258       .  A
O906      Cr1697   2.043       .  S
O906        C907   1.277       .  A
C907        C935   1.477   1_545  S
O908       Cr924   1.959       .  S
O909      Cr2472   1.982   1_455  S
O909        C910   1.259       .  A
C910       C1538   1.492       .  S
C910        O911   1.261       .  A
O911       Cr925   1.986       .  S
O912       Cr925   2.011       .  S
O914       Cr923   2.021       .  S
O914        C922   1.270       .  A
O915      Cr2471   1.964       .  S
O915        C916   1.251       .  A
C916       C1255   1.512       .  S
C916        O917   1.262       .  A
O917       Cr924   2.014       .  S
O918      Cr2472   1.969   1_455  S
O918        C919   1.262       .  A
C919       C1216   1.499       .  S
C919        O920   1.267       .  A
O920       Cr925   2.003       .  S
O921       Cr925   1.967       .  S
O921        C922   1.256       .  A
C922       C1202   1.506       .  S
Cr923      O1680   2.043   1_455  S
Cr923      O2463   1.964       .  S
Cr923       O926   1.779       .  S
Cr924      O2457   1.982       .  S
Cr924      O2466   1.969       .  S
Cr924      O2474   1.781       .  S
Cr925       O926   1.778       .  S
O926      Cr2472   1.781   1_455  S
O927       Cr945   2.012       .  S
O927        C935   1.264       .  A
O928       Cr945   1.950       .  S
O928        C929   1.260       .  A
C929        O930   1.269       .  A
O930       Cr946   2.017       .  S
O931       Cr946   1.995       .  S
O931        C932   1.265       .  A
C932       C1342   1.507       .  S
C932        O933   1.264       .  A
O933       Cr947   2.010       .  S
O934       Cr947   1.989       .  S
O934        C935   1.266       .  A
O936       Cr945   1.968       .  S
O936        C944   1.257       .  A
O937       Cr945   2.001       .  S
O937        C938   1.258       .  A
C938       C1188   1.498       .  S
C938        O939   1.259       .  A
O939       Cr946   1.988       .  S
O940       Cr946   1.996       .  S
O940        C941   1.264       .  A
C941       C1230   1.473       .  S
C941        O942   1.262       .  A
O942       Cr947   1.970       .  S
O943       Cr947   2.014       .  S
O943        C944   1.266       .  A
C944       C1300   1.484       .  S
Cr945       O948   1.778       .  S
Cr946       O948   1.778       .  S
Cr947       O948   1.775       .  S
C949        N950   1.363       .  A
C949        N954   1.361       .  A
C949       C1171   1.490       .  S
N950        C951   1.365       .  A
C951        N952   1.360       .  A
C951       C1185   1.515       .  S
N952        C953   1.358       .  A
C953        N954   1.357       .  A
C953       C1199   1.491       .  S
C955        N956   1.363       .  A
C955        N960   1.363       .  A
C955       C1398   1.505       .  S
N956        C957   1.360   1_556  A
C957        N958   1.355       .  A
N958        C959   1.356       .  A
C959        N960   1.360   1_554  A
C959       C1160   1.482       .  S
C961        N962   1.368       .  A
C961        N966   1.362       .  A
C961       C1370   1.529       .  S
N962        C963   1.365   1_556  A
C963        N964   1.359       .  A
C963       C1115   1.502       .  S
N964        C965   1.354       .  A
C965        N966   1.359   1_554  A
C965       C1129   1.505       .  S
C967        N968   1.356       .  A
C967        N972   1.352       .  A
C967       C1073   1.479       .  S
N968        C969   1.357       .  A
C969        N970   1.356       .  A
C969       C1101   1.494       .  S
N970        C971   1.354       .  A
C971        N972   1.354       .  A
C971       C1090   1.478       .  S
O973       Cr991   2.017       .  S
O973        C981   1.272       .  A
O974       Cr991   1.961       .  S
O974        C975   1.255       .  A
C975       C1025   1.472       .  S
C975        O976   1.269       .  A
O976       Cr992   2.026       .  S
O977       Cr992   1.981       .  S
O977        C978   1.262       .  A
C978       C1283   1.499       .  S
C978        O979   1.266       .  A
O979       Cr993   2.009       .  S
O980       Cr993   1.963       .  S
O980        C981   1.257       .  A
C981        C997   1.468       .  S
O982       Cr991   1.966       .  S
O982        C990   1.253       .  A
O983       Cr991   2.011       .  S
O983        C984   1.266       .  A
C984       C2705   1.489   1_455  S
C984        O985   1.259   1_455  A
O985       Cr992   1.976   1_655  S
O986      Cr2540   2.016       .  S
O986        C987   1.267       .  A
C987       C1104   1.507       .  S
C987        O988   1.259       .  A
O988      Cr2541   1.961       .  S
O989       Cr993   2.024       .  S
O989        C990   1.268       .  A
C990       C2680   1.520   1_455  S
Cr991       O994   1.775       .  S
Cr992      O2534   2.016   1_455  S
Cr992       O994   1.768       .  S
Cr993      O2536   1.961   1_455  S
Cr993       O994   1.777       .  S
O995      Cr1013   2.025       .  S
O995       C1003   1.276       .  A
O996      Cr1013   1.967       .  S
O996        C997   1.258       .  A
C997        O998   1.266       .  A
O998      Cr1014   2.009       .  S
O999      Cr1014   1.981       .  S
O999       C1000   1.259       .  A
C1000      C1328   1.497       .  S
C1000      O1001   1.263       .  A
O1001     Cr1015   2.008       .  S
O1002     Cr1015   1.963       .  S
O1002      C1003   1.259       .  A
C1003      C1019   1.470       .  S
O1004     Cr1013   1.970       .  S
O1004      C1012   1.252       .  A
O1005     Cr1013   2.007       .  S
O1005      C1006   1.266       .  A
C1006      C1062   1.509       .  S
C1006      O1007   1.257       .  A
O1007     Cr1014   1.963       .  S
O1008     Cr1014   2.013       .  S
O1008      C1009   1.269       .  A
C1009      C1087   1.502       .  S
C1009      O1010   1.260       .  A
O1010     Cr1015   1.961       .  S
O1011     Cr1015   2.019       .  S
O1011      C1012   1.263       .  A
C1012      C1146   1.492       .  S
Cr1013     O1016   1.775       .  S
Cr1014     O1016   1.768       .  S
Cr1015     O1016   1.785       .  S
O1017     Cr1035   2.021       .  S
O1017      C1025   1.275       .  A
O1018     Cr1035   1.964       .  S
O1018      C1019   1.256       .  A
C1019      O1020   1.267       .  A
O1020     Cr1036   2.010       .  S
O1021     Cr1036   2.004       .  S
O1021      C1022   1.265       .  A
C1022      C1174   1.507       .  S
C1022      O1023   1.255       .  A
O1023     Cr1037   1.978       .  S
O1024     Cr1037   1.974       .  S
O1024      C1025   1.262       .  A
O1026     Cr1035   1.963       .  S
O1026      C1034   1.248       .  A
O1027     Cr1035   2.004       .  S
O1027      C1028   1.263       .  A
C1028      C1118   1.515       .  S
C1028      O1029   1.258       .  A
O1029     Cr1036   1.978       .  S
O1030     Cr1036   1.991       .  S
O1030      C1031   1.266       .  A
C1031      C1076   1.499       .  S
C1031      O1032   1.269       .  A
O1032     Cr1037   1.988       .  S
O1033     Cr1037   2.003       .  S
O1033      C1034   1.257       .  A
C1034      C1045   1.506       .  S
Cr1035     O1038   1.787       .  S
Cr1036     O1038   1.785       .  S
Cr1037     O1038   1.791       .  S
C1039      N1040   1.362       .  A
C1039      N1044   1.357       .  A
C1039      C1356   1.519       .  S
N1040      C1041   1.363   1_556  A
C1041      N1042   1.357       .  A
N1042      C1043   1.352       .  A
C1043      N1044   1.355   1_554  A
C1043      C1048   1.489       .  S
C1045      C1046   1.422       .  A
C1045      C1050   1.425       .  A
C1046      C1047   1.415       .  A
C1046      C1051   1.452       .  S
C1047      C1048   1.414       .  A
C1047      C1054   1.451       .  S
C1048      C1049   1.411       .  A
C1049      C1050   1.407       .  A
C1049      C1052   1.455       .  S
C1050      C1053   1.451       .  S
C1051      N1058   1.157       .  T
C1052      N1057   1.157   1_554  T
C1053      N1055   1.157       .  T
C1054      N1056   1.158       .  T
C1059      C1060   1.417       .  A
C1059      C1064   1.413       .  A
C1060      C1061   1.411       .  A
C1061      C1062   1.425       .  A
C1061      C1068   1.455       .  S
C1062      C1063   1.422       .  A
C1063      C1064   1.415       .  A
C1063      C1066   1.451       .  S
C1064      C1067   1.452       .  S
C1065      N1072   1.157       .  T
C1066      N1071   1.158       .  T
C1067      N1069   1.157   1_554  T
C1068      N1070   1.157       .  T
C1073      C1074   1.404       .  A
C1073      C1078   1.413       .  A
C1074      C1075   1.407       .  A
C1074      C1079   1.454       .  S
C1075      C1076   1.428       .  A
C1075      C1082   1.453       .  S
C1076      C1077   1.418       .  A
C1077      C1078   1.410       .  A
C1077      C1080   1.450       .  S
C1078      C1081   1.453       .  S
C1079      N1086   1.157       .  T
C1080      N1085   1.157       .  T
C1081      N1083   1.157       .  T
C1082      N1084   1.158       .  T
C1087      C1092   1.426       .  A
C1088      C1089   1.408       .  A
C1089      C1090   1.412       .  A
C1089      C1096   1.455       .  S
C1090      C1091   1.407       .  A
C1091      C1094   1.455       .  S
C1092      C1095   1.451       .  S
C1093      N1100   1.157       .  T
C1094      N1099   1.157       .  T
C1095      N1097   1.157       .  T
C1096      N1098   1.158       .  T
C1101      C1102   1.414       .  A
C1101      C1106   1.417       .  A
C1102      C1103   1.411       .  A
C1102      C1107   1.454       .  S
C1103      C1104   1.424       .  A
C1103      C1110   1.453       .  S
C1104      C1105   1.424       .  A
C1105      C1106   1.409       .  A
C1105      C1108   1.453       .  S
C1106      C1109   1.454       .  S
C1107      N1114   1.158       .  T
C1108      N1113   1.157       .  T
C1109      N1111   1.158       .  T
C1110      N1112   1.158       .  T
C1115      C1116   1.416       .  A
C1115      C1120   1.414       .  A
C1116      C1117   1.422       .  A
C1116      C1121   1.450   1_554  S
C1117      C1118   1.422       .  A
C1117      C1124   1.451       .  S
C1118      C1119   1.424       .  A
C1119      C1120   1.411       .  A
C1119      C1122   1.451       .  S
C1120      C1123   1.455       .  S
C1121      N1128   1.157       .  T
C1122      N1127   1.156       .  T
C1123      N1125   1.158       .  T
C1124      N1126   1.157       .  T
C1129      C1130   1.413       .  A
C1129      C1134   1.418       .  A
C1130      C1131   1.413       .  A
C1130      C1135   1.454       .  S
C1131      C1132   1.429       .  A
C1131      C1138   1.452       .  S
C1132      C2538   1.520       .  S
C1132      C1133   1.422       .  A
C1133      C1134   1.420       .  A
C1133      C1136   1.451       .  S
C1134      C1137   1.452       .  S
C1135      N1142   1.158   1_554  T
C1136      N1141   1.157       .  T
C1137      N1139   1.157       .  T
C1138      N1140   1.157       .  T
C1143      C1144   1.412       .  A
C1143      C1148   1.408       .  A
C1144      C1145   1.417       .  A
C1144      C1149   1.449       .  S
C1145      C1146   1.414       .  A
C1145      C1152   1.449       .  S
C1146      C1147   1.418       .  A
C1147      C1148   1.409       .  A
C1147      C1150   1.450       .  S
C1148      C1151   1.452   1_565  S
C1149      N1156   1.157       .  T
C1150      N1155   1.156       .  T
C1151      N1153   1.157       .  T
C1152      N1154   1.157       .  T
C1157      C2532   1.489       .  S
C1157      C1158   1.417       .  A
C1157      C1162   1.414       .  A
C1158      C1159   1.408       .  A
C1158      C1163   1.449       .  S
C1159      C1160   1.407       .  A
C1159      C1166   1.453       .  S
C1160      C1161   1.412       .  A
C1161      C1162   1.416       .  A
C1161      C1164   1.449       .  S
C1162      C2713   1.450       .  S
C1163      N1170   1.156       .  T
C1164      N1169   1.157   1_554  T
C1165      C2710   1.450   1_455  S
C1165      N1167   1.157       .  T
C1166      N1168   1.157       .  T
C1171      C1172   1.405       .  A
C1171      C1176   1.416       .  A
C1172      C1173   1.407       .  A
C1172      C1177   1.452       .  S
C1173      C1174   1.427       .  A
C1173      C1180   1.453       .  S
C1174      C1175   1.415       .  A
C1175      C1176   1.422       .  A
C1175      C1178   1.448       .  S
C1176      C1179   1.449       .  S
C1177      N1184   1.157       .  T
C1178      N1183   1.157       .  T
C1179      N1181   1.157       .  T
C1180      N1182   1.158       .  T
C1185      C1186   1.426       .  A
C1185      C1190   1.423       .  A
C1186      C1187   1.415       .  A
C1186      C1191   1.452       .  S
C1187      C1188   1.409       .  A
C1187      C1194   1.452       .  S
C1188      C1189   1.416       .  A
C1189      C1190   1.416       .  A
C1189      C1192   1.452       .  S
C1190      C1193   1.451       .  S
C1191      N1198   1.157       .  T
C1192      N1197   1.157       .  T
C1193      N1195   1.157       .  T
C1194      N1196   1.157       .  T
C1199      C1200   1.408       .  A
C1199      C1204   1.414       .  A
C1200      C1201   1.410       .  A
C1200      C1205   1.455       .  S
C1201      C1202   1.424       .  A
C1201      C1208   1.447       .  S
C1202      C1203   1.417       .  A
C1203      C1204   1.418       .  A
C1203      C1206   1.451       .  S
C1204      C1207   1.447       .  S
C1205      N1212   1.158       .  T
C1206      N1211   1.158       .  T
C1207      N1209   1.156       .  T
C1208      N1210   1.155       .  T
C1213      C1214   1.411       .  A
C1213      C1218   1.406       .  A
C1214      C1215   1.407       .  A
C1214      C1219   1.455       .  S
C1215      C1216   1.421       .  A
C1215      C1222   1.449       .  S
C1216      C1217   1.427       .  A
C1217      C1218   1.408       .  A
C1217      C1220   1.453       .  S
C1218      C1221   1.453       .  S
C1219      N1226   1.157       .  T
C1220      N1225   1.158       .  T
C1221      N1223   1.157       .  T
C1222      N1224   1.156       .  T
C1227      C1228   1.421       .  A
C1227      C1232   1.419       .  A
C1228      C1229   1.407       .  A
C1228      C1233   1.453       .  S
C1229      C1230   1.408       .  A
C1229      C1236   1.450       .  S
C1230      C1231   1.408       .  A
C1231      C1232   1.407       .  A
C1231      C1234   1.453       .  S
C1232      C1235   1.452       .  S
C1233      N1240   1.158       .  T
C1234      N1239   1.157       .  T
C1235      N1237   1.157       .  T
C1236      N1238   1.156       .  T
C1241      C1242   1.412       .  A
C1241      C1246   1.414       .  A
C1242      C1243   1.408       .  A
C1242      C1247   1.454       .  S
C1243      C1244   1.421       .  A
C1243      C1250   1.452       .  S
C1244      C1245   1.424       .  A
C1245      C1246   1.406       .  A
C1245      C1248   1.453       .  S
C1246      C1249   1.455       .  S
C1247      N1254   1.157       .  T
C1248      N1253   1.157       .  T
C1249      N1251   1.158       .  T
C1250      N1252   1.157       .  T
C1255      C1256   1.427       .  A
C1255      C1260   1.423       .  A
C1256      C1257   1.410       .  A
C1256      C1261   1.451       .  S
C1257      C1258   1.410       .  A
C1257      C1264   1.455       .  S
C1258      C1259   1.412       .  A
C1259      C1260   1.418       .  A
C1259      C1262   1.451       .  S
C1260      C1263   1.450       .  S
C1261      N2816   1.157       .  T
C1262      N1267   1.157       .  T
C1263      N1265   1.157       .  T
C1264      N1266   1.158       .  T
N1268      C2809   1.157       .  T
C1269      C1270   1.412       .  A
C1269      C2822   1.408       .  A
C1270      C1271   1.417       .  A
C1270      C1275   1.449       .  S
C1271      C1272   1.415       .  A
C1271      C1278   1.449       .  S
C1272      C2821   1.418       .  A
C1273      C2820   1.418       .  A
C1273      C1274   1.408       .  A
C1273      C1276   1.450       .  S
C1274      C2817   1.408       .  A
C1274      C1277   1.453       .  S
C1275      N1282   1.157       .  T
C1276      N1281   1.156       .  T
C1277      N1279   1.157       .  T
C1278      N1280   1.157       .  T
C1283      C1284   1.414       .  A
C1283      C1288   1.414       .  A
C1284      C1285   1.415       .  A
C1284      C1289   1.452       .  S
C1285      C2834   1.427       .  A
C1285      C1292   1.453       .  S
C1286      C2833   1.427       .  A
C1286      C1287   1.430       .  A
C1287      C2836   1.414       .  A
C1287      C1290   1.453       .  S
C1288      C2835   1.414       .  A
C1288      C1291   1.455       .  S
C1289      N1296   1.157       .  T
C1290      N1295   1.158       .  T
C1291      N1293   1.158       .  T
C1292      N1294   1.158       .  T
C1297      C1298   1.409       .  A
C1297      C1302   1.410       .  A
C1298      C1299   1.408       .  A
C1298      C1303   1.453       .  S
C1299      C1300   1.416       .  A
C1299      C1306   1.451       .  S
C1300      C1301   1.414       .  A
C1301      C1302   1.413       .  A
C1301      C1304   1.450       .  S
C1302      C1305   1.450       .  S
C1303      N1310   1.157       .  T
C1304      N1309   1.157   1_565  T
C1306      N1308   1.157       .  T
C1311      C1312   1.416       .  A
C1311      C1316   1.410       .  A
C1312      C1313   1.420       .  A
C1312      C1317   1.450       .  S
C1313      C1314   1.420       .  A
C1313      C1320   1.450       .  S
C1314      C1315   1.429       .  A
C1315      C1316   1.407       .  A
C1315      C1318   1.453       .  S
C1316      C1319   1.456       .  S
C1318      N1323   1.157       .  T
C1319      N1321   1.158       .  T
C1325      C1326   1.430       .  A
C1325      C1330   1.429       .  A
C1326      C1327   1.416       .  A
C1326      C1331   1.452       .  S
C1327      C1328   1.411       .  A
C1327      C1334   1.453       .  S
C1328      C1329   1.413       .  A
C1329      C1330   1.415       .  A
C1329      C1332   1.454       .  S
C1330      C1333   1.453       .  S
C1331      N1338   1.158       .  T
C1332      N1337   1.157       .  T
C1333      N1335   1.158       .  T
C1334      N1336   1.157       .  T
C1339      C1340   1.427       .  A
C1339      C1344   1.425       .  A
C1340      C1341   1.419       .  A
C1340      C1345   1.449       .  S
C1341      C1342   1.414       .  A
C1341      C1348   1.453       .  S
C1342      C1343   1.413       .  A
C1343      C1344   1.422       .  A
C1343      C1346   1.451       .  S
C1344      C1347   1.450       .  S
C1345      N1352   1.157       .  T
C1346      N1351   1.158       .  T
C1347      N1349   1.157       .  T
C1348      N1350   1.157       .  T
C1353      C1354   1.417       .  A
C1353      C1358   1.417       .  A
C1354      C1355   1.416       .  A
C1354      C1359   1.453       .  S
C1355      C1356   1.425       .  A
C1355      C1362   1.452       .  S
C1356      C1357   1.429       .  A
C1357      C1358   1.414       .  A
C1357      C1360   1.454       .  S
C1358      C1361   1.455       .  S
C1359      N1366   1.157       .  T
C1360      N1365   1.158       .  T
C1361      N1363   1.158       .  T
C1362      N1364   1.158       .  T
C1367      C1368   1.417       .  A
C1367      C1372   1.411       .  A
C1368      C1369   1.421       .  A
C1368      C1373   1.452       .  S
C1369      C1370   1.429       .  A
C1369      C1376   1.451       .  S
C1370      C1371   1.432       .  A
C1371      C1372   1.414       .  A
C1371      C1374   1.452       .  S
C1372      C1375   1.455       .  S
C1373      N1380   1.158       .  T
C1374      N1379   1.158       .  T
C1375      N1377   1.157       .  T
C1376      N1378   1.158       .  T
C1381      C1382   1.413       .  A
C1381      C1386   1.411       .  A
C1382      C1383   1.421       .  A
C1382      C1387   1.449       .  S
C1383      C1384   1.421       .  A
C1383      C1390   1.449       .  S
C1384      C1385   1.424       .  A
C1385      C1386   1.410       .  A
C1385      C1388   1.451       .  S
C1386      C1389   1.453       .  S
C1387      N1394   1.157       .  T
C1388      N1393   1.157       .  T
C1389      N1391   1.158       .  T
C1390      N1392   1.157       .  T
C1395      C1396   1.406       .  A
C1395      C1400   1.413       .  A
C1396      C1397   1.415       .  A
C1396      C1401   1.447       .  S
C1397      C1398   1.422       .  A
C1398      C1399   1.421       .  A
C1399      C1400   1.414       .  A
C1399      C1402   1.451       .  S
C1400      C1403   1.452       .  S
C1402      N1407   1.157       .  T
C1403      N1405   1.157       .  T
C1404      N1406   1.157       .  T
C1409      C1410   1.423       .  A
C1409      C1414   1.430       .  A
C1410      C1411   1.422       .  A
C1410      C1415   1.450       .  S
C1411      C1412   1.415       .  A
C1412      C1413   1.413       .  A
C1413      C1414   1.414       .  A
C1413      C1416   1.453       .  S
C1414      C1417   1.452       .  S
C1415      N1422   1.157       .  T
C1416      N1421   1.157       .  T
C1417      N1419   1.158       .  T
C1418      N1420   1.158       .  T
C1423      C1424   1.414       .  A
C1423      C1428   1.411       .  A
C1424      C1425   1.406       .  A
C1424      C1429   1.450       .  S
C1425      C1426   1.406       .  A
C1425      C1432   1.451       .  S
C1426      C1427   1.407       .  A
C1427      C1428   1.399       .  A
C1427      C1430   1.451       .  S
C1428      C1431   1.450       .  S
C1429      N1436   1.157       .  T
C1430      N1435   1.156       .  T
C1431      N1433   1.156       .  T
C1432      N1434   1.157       .  T
C1437      C1438   1.411       .  A
C1437      C1442   1.406       .  A
C1438      C1439   1.402       .  A
C1438      C1443   1.450       .  S
C1439      C1446   1.454       .  S
C1440      C1441   1.410       .  A
C1441      C1444   1.450       .  S
C1442      C1445   1.450       .  S
C1443      N2998   1.157       .  T
C1444      N1449   1.157       .  T
C1445      N1447   1.157       .  T
C1446      N1448   1.157       .  T
N1450      C2991   1.157       .  T
C1451      C1456   1.418       .  A
C1452      C1453   1.406       .  A
C1452      C1457   1.453       .  S
C1453      C1454   1.410       .  A
C1453      C1460   1.446       .  S
C1455      C1456   1.410       .  A
C1455      C1458   1.452       .  S
C1456      C1459   1.452       .  S
C1457      N3012   1.157       .  T
C1458      N1463   1.157       .  T
C1459      N1461   1.157       .  T
C1460      N1462   1.154       .  T
N1464      C3005   1.157   1_455  T
C1465      C2333   1.500       .  S
C1465      C1466   1.419       .  A
C1465      C1470   1.415       .  A
C1466      C1467   1.415       .  A
C1466      C3019   1.452       .  S
C1467      C1468   1.419       .  A
C1467      C1474   1.452       .  S
C1468      C1469   1.424       .  A
C1469      C1470   1.411       .  A
C1469      C1472   1.452       .  S
C1470      C1473   1.454       .  S
C1471      C3014   1.452   1_455  S
C1471      N1478   1.158       .  T
C1472      N1477   1.157       .  T
C1473      N1475   1.157       .  T
C1474      N1476   1.157       .  T
C1479      C1480   1.426       .  A
C1479      C1484   1.423       .  A
C1480      C1481   1.411       .  A
C1480      C1485   1.452       .  S
C1481      C1482   1.410       .  A
C1481      C1488   1.452       .  S
C1482      C1483   1.411       .  A
C1483      C1484   1.413       .  A
C1484      C1487   1.452       .  S
C1485      N1492   1.158       .  T
C1486      N1491   1.158       .  T
C1487      N1489   1.157       .  T
C1488      N1490   1.157       .  T
C1493      C1494   1.425   1_455  A
C1493      C1498   1.424       .  A
C1494      C1495   1.412       .  A
C1494      C1499   1.454       .  S
C1495      C1496   1.418   1_655  A
C1495      C3050   1.455       .  S
C1496      C1497   1.413       .  A
C1497      C1498   1.415       .  A
C1497      C1500   1.452       .  S
C1498      C1501   1.451       .  S
C1499      N3054   1.158       .  T
C1500      N1505   1.157       .  T
C1501      N1503   1.158       .  T
C1502      C3043   1.455       .  S
C1502      N1504   1.158       .  T
N1506      C3047   1.158       .  T
C1507      C1508   1.420       .  A
C1507      C1512   1.415       .  A
C1508      C1509   1.419       .  A
C1508      C1513   1.453       .  S
C1509      C1510   1.423       .  A
C1509      C1516   1.452       .  S
C1510      C1511   1.428       .  A
C1511      C1512   1.414       .  A
C1511      C1514   1.453       .  S
C1512      C1515   1.453       .  S
C1513      N1520   1.157       .  T
C1514      N1519   1.157       .  T
C1515      N1517   1.157       .  T
C1516      N1518   1.158       .  T
C1521      C1522   1.410       .  A
C1521      C1526   1.414       .  A
C1522      C1523   1.410       .  A
C1522      C1527   1.448       .  S
C1523      C1524   1.426       .  A
C1523      C1530   1.453       .  S
C1524      C2325   1.506       .  S
C1524      C3073   1.419       .  A
C1525      C3072   1.419       .  A
C1525      C3074   1.416       .  A
C1525      C1528   1.450   1_655  S
C1526      C3073   1.416       .  A
C1526      C1529   1.452       .  S
C1527      N1534   1.156       .  T
C1528      N1533   1.158       .  T
C1529      N1531   1.157       .  T
C1530      N1532   1.157       .  T
C1535      C1536   1.410       .  A
C1535      C1540   1.413       .  A
C1536      C1537   1.401       .  A
C1536      C1541   1.456       .  S
C1537      C1538   1.422       .  A
C1537      C1544   1.454       .  S
C1538      C1539   1.414       .  A
C1539      C1540   1.417       .  A
C1539      C1542   1.449       .  S
C1540      C1543   1.449       .  S
C1541      N1548   1.157       .  T
C1543      N1545   1.157       .  T
C1544      N1546   1.157       .  T
C1549      N1550   1.350       .  A
C1549      N1554   1.358       .  A
C1549      C2309   1.481       .  S
N1550      C1551   1.348       .  A
C1551      N1552   1.361       .  A
N1552      C1553   1.368       .  A
C1553      N1554   1.365       .  A
C1553      C2281   1.508       .  S
C1555      N1556   1.361       .  A
C1555      N1560   1.358       .  A
C1555      C2267   1.512       .  S
N1556      C1557   1.362       .  A
C1557      N1558   1.357       .  A
C1557      C2253   1.509       .  S
N1558      C1559   1.355       .  A
C1559      N1560   1.357       .  A
C1561      N1562   1.359       .  A
C1561      N1566   1.357       .  A
C1561      C2225   1.491       .  S
C1563      C2211   1.462       .  S
N1564      C1565   1.349       .  A
C1565      N1566   1.352       .  A
C1565      C2200   1.457       .  S
O1567     Cr1585   2.022       .  S
O1567      C1575   1.271       .  A
O1568     Cr1585   1.976       .  S
O1568      C1569   1.261       .  A
C1569      C1597   1.472       .  S
C1569      O1570   1.268       .  A
O1570     Cr1586   2.011       .  S
O1571     Cr1586   1.978       .  S
O1571      C1572   1.257       .  A
C1572      C2169   1.490       .  S
C1572      O1573   1.263       .  A
O1573     Cr1587   2.011       .  S
O1574     Cr1587   1.975       .  S
O1574      C1575   1.264       .  A
C1575      C1613   1.473       .  S
O1576     Cr1585   1.995       .  S
O1576      C1584   1.260   1_545  A
O1577     Cr1585   2.011       .  S
O1577      C1578   1.264       .  A
C1578      C2295   1.496       .  S
C1578      O1579   1.255       .  A
O1579     Cr1586   1.966       .  S
O1580     Cr1586   2.006       .  S
O1580      C1581   1.267       .  A
C1581      C2228   1.479       .  S
C1581      O1582   1.263       .  A
O1582     Cr1587   1.974       .  S
O1583     Cr2361   2.017       .  S
O1583      C2358   1.265       .  A
C1584      C2960   1.506       .  S
C1584      O2357   1.265       .  A
Cr1585     O1588   1.783       .  S
Cr1586     O1588   1.781       .  S
Cr1587     O2357   2.017   1_545  S
Cr1587     O1588   1.779       .  S
O1589     Cr1607   2.023       .  S
O1589      C1597   1.274       .  A
O1590     Cr1607   1.947       .  S
O1590      C1591   1.254       .  A
C1591      C1619   1.462       .  S
C1591      O1592   1.265       .  A
O1592     Cr1608   2.012       .  S
O1593     Cr1608   1.986       .  S
O1593      C1594   1.260       .  A
C1594      C2141   1.506       .  S
C1594      O1595   1.266       .  A
O1595     Cr1609   2.009       .  S
O1596     Cr1609   1.973       .  S
O1596      C1597   1.264       .  A
O1598     Cr1607   1.965       .  S
O1598      C1606   1.251       .  A
O1599     Cr1607   2.020       .  S
O1599      C1600   1.268       .  A
C1600      C2158   1.514       .  S
C1600      O1601   1.256       .  A
O1601     Cr1608   1.968       .  S
O1602     Cr1608   2.005       .  S
O1602      C1603   1.267       .  A
C1603      C2197   1.469       .  S
C1603      O1604   1.261       .  A
O1604     Cr1609   1.959       .  S
O1605     Cr1609   2.018       .  S
O1605      C1606   1.264       .  A
C1606      C2242   1.510       .  S
Cr1607     O1610   1.771       .  S
Cr1608     O1610   1.780       .  S
Cr1609     O1610   1.774       .  S
O1611     Cr1629   1.953       .  S
O1611      C1619   1.257       .  A
O1612     Cr1629   2.026       .  S
O1612      C1613   1.274       .  A
C1613      O1614   1.264       .  A
O1614     Cr1630   1.973       .  S
O1615     Cr1630   2.009       .  S
O1615      C1616   1.262       .  A
C1616      C2127   1.502       .  S
C1616      O1617   1.259       .  A
O1617     Cr1631   1.982       .  S
O1618     Cr1631   2.008       .  S
O1618      C1619   1.264       .  A
O1620     Cr1629   2.017       .  S
O1620      C1628   1.268       .  A
O1621     Cr1629   1.970       .  S
O1621      C1622   1.254   1_545  A
C1622      C3030   1.488       .  S
C1622      O2397   1.263       .  A
O1623     Cr2404   2.014       .  S
O1623      C2396   1.263       .  A
O1624     Cr1630   1.963   1_565  S
O1624      C1625   1.260   1_565  A
C1625      C2214   1.460   1_545  S
C1625      O1626   1.266       .  A
O1626     Cr1631   2.002       .  S
O1627     Cr1631   1.967       .  S
O1627      C1628   1.257       .  A
C1628      C2284   1.519       .  S
Cr1629     O1632   1.769       .  S
Cr1630     O2397   2.014   1_545  S
Cr1630     O1632   1.776       .  S
Cr1631     O1632   1.773       .  S
C1633      N1634   1.372       .  A
C1633      N1638   1.367       .  A
C1633      C2113   1.527       .  S
N1634      C1635   1.368       .  A
C1635      N1636   1.355       .  A
C1635      C2183   1.525       .  S
N1636      C1637   1.354       .  A
C1637      N1638   1.361       .  A
C1637      C2155   1.497       .  S
C1639      N1640   1.359       .  A
C1639      N1644   1.358       .  A
C1639      C2099   1.522       .  S
N1640      C1641   1.360       .  A
C1641      N1642   1.358       .  A
C1641      C2085   1.495       .  S
N1642      C1643   1.358       .  A
C1643      N1644   1.358       .  A
C1643      C2071   1.477       .  S
C1645      N1646   1.361       .  A
C1645      N1650   1.356       .  A
C1645      C2060   1.520       .  S
N1646      C1647   1.360       .  A
C1647      N1648   1.360       .  A
C1647      C2043   1.482       .  S
N1648      C1649   1.358       .  A
C1649      N1650   1.356       .  A
C1649      C2032   1.491       .  S
C1651      N1652   1.354       .  A
C1651      N1656   1.354       .  A
C1651      C2015   1.483       .  S
N1652      C1653   1.355       .  A
C1653      N1654   1.355       .  A
C1653      C2001   1.490       .  S
N1654      C1655   1.354       .  A
C1655      N1656   1.353       .  A
C1655      C1987   1.475       .  S
O1657      C1665   1.252       .  A
O1658     Cr1675   2.011       .  S
O1658      C1659   1.269       .  A
C1659      C1687   1.468       .  S
C1659      O1660   1.257       .  A
O1660     Cr1676   1.971       .  S
O1661     Cr1676   2.028       .  S
O1661      C1662   1.271       .  A
C1662      C2270   1.499       .  S
C1662      O1663   1.258       .  A
O1664     Cr1677   2.019   1_655  S
O1664      C1665   1.266       .  A
C1665      C1703   1.458       .  S
O1666      C1674   1.269       .  A
O1667     Cr1675   1.944       .  S
O1667      C1668   1.251       .  A
C1668      C2088   1.514       .  S
C1668      O1669   1.274       .  A
O1669     Cr1676   2.038       .  S
O1670     Cr1676   1.951       .  S
O1670      C1671   1.256       .  A
C1671      C2018   1.499       .  S
C1671      O1672   1.267       .  A
O1673     Cr1677   1.967       .  S
O1673      C1674   1.257       .  A
C1674      C2046   1.492       .  S
Cr1675     O1678   1.766       .  S
Cr1676     O1678   1.772       .  S
O1679     Cr2471   1.966       .  S
O1679      C1687   1.258       .  A
O1680      C1681   1.277       .  A
C1681      C1709   1.477       .  S
C1681      O2456   1.256       .  A
O1682     Cr1698   1.959       .  S
O1682      C2455   1.256       .  A
O1683      C1684   1.259       .  A
C1684      C2312   1.492       .  S
C1684      O1685   1.261       .  A
O1685     Cr1699   1.986       .  S
O1686     Cr1699   2.011       .  S
O1686      C2461   1.266       .  A
C1687      O2460   1.266       .  A
O1688     Cr1697   2.021       .  S
O1688      C1696   1.270       .  A
O1689      C1690   1.251   1_455  A
C1690      C2029   1.512       .  S
C1690      O1691   1.262       .  A
O1691     Cr1698   2.014       .  S
O1692      C1693   1.262       .  A
C1693      C1990   1.499       .  S
C1693      O1694   1.267       .  A
O1694     Cr1699   2.003       .  S
O1695     Cr1699   1.967       .  S
O1695      C1696   1.256       .  A
C1696      C1976   1.506       .  S
Cr1697     O2453   1.966       .  S
Cr1697     O1700   1.779       .  S
Cr1699     O1700   1.778       .  S
O1701     Cr1719   2.012       .  S
O1701      C1709   1.264       .  A
O1702     Cr1719   1.950       .  S
O1702      C1703   1.260       .  A
C1703      O1704   1.269       .  A
O1704     Cr1720   2.017       .  S
O1705     Cr1720   1.995       .  S
O1705      C1706   1.265       .  A
C1706      C2116   1.507       .  S
C1706      O1707   1.264       .  A
O1707     Cr1721   2.010       .  S
O1708     Cr1721   1.989       .  S
O1708      C1709   1.266       .  A
O1710     Cr1719   1.968       .  S
O1710      C1718   1.257       .  A
O1711     Cr1719   2.001       .  S
O1711      C1712   1.258       .  A
C1712      C1962   1.498       .  S
C1712      O1713   1.259       .  A
O1713     Cr1720   1.988       .  S
O1714     Cr1720   1.996       .  S
O1714      C1715   1.264       .  A
C1715      C2004   1.473       .  S
C1715      O1716   1.262       .  A
O1716     Cr1721   1.970       .  S
O1717     Cr1721   2.014       .  S
O1717      C1718   1.266       .  A
C1718      C2074   1.484       .  S
Cr1719     O1722   1.778       .  S
Cr1720     O1722   1.778       .  S
Cr1721     O1722   1.775       .  S
C1723      N1724   1.363       .  A
C1723      N1728   1.361       .  A
C1723      C1945   1.490       .  S
N1724      C1725   1.365       .  A
C1725      N1726   1.360       .  A
C1725      C1959   1.515       .  S
N1726      C1727   1.358       .  A
C1727      N1728   1.357       .  A
C1727      C1973   1.491       .  S
C1729      N1730   1.363       .  A
C1729      N1734   1.363       .  A
C1729      C2172   1.505       .  S
N1730      C1731   1.360   1_556  A
C1731      N1732   1.355       .  A
C1731      C2691   1.482   1_545  S
N1732      C1733   1.356       .  A
C1733      N1734   1.360   1_554  A
C1733      C1934   1.482       .  S
C1735      N1736   1.368       .  A
C1735      N1740   1.362       .  A
C1735      C2144   1.529       .  S
N1736      C1737   1.365   1_556  A
C1737      N1738   1.359       .  A
C1737      C1889   1.502       .  S
N1738      C1739   1.353       .  A
C1739      N1740   1.359   1_554  A
C1739      C1903   1.505       .  S
C1741      N1742   1.356       .  A
C1741      N1746   1.352       .  A
C1741      C1847   1.479       .  S
N1742      C1743   1.357       .  A
C1743      N1744   1.356       .  A
C1743      C1875   1.494       .  S
N1744      C1745   1.354       .  A
C1745      N1746   1.354       .  A
C1745      C1864   1.478       .  S
O1747     Cr1765   2.017       .  S
O1747      C1755   1.272       .  A
O1748     Cr1765   1.961       .  S
O1748      C1749   1.255       .  A
C1749      C1799   1.472       .  S
C1749      O1750   1.269       .  A
O1750     Cr1766   2.026       .  S
O1751     Cr1766   1.981       .  S
O1751      C1752   1.262       .  A
C1752      C2057   1.499       .  S
C1752      O1753   1.266       .  A
O1753     Cr1767   2.009       .  S
O1754     Cr1767   1.963       .  S
O1754      C1755   1.257       .  A
C1755      C1771   1.468       .  S
O1756     Cr1765   1.966       .  S
O1756      C1764   1.253       .  A
O1757     Cr1765   2.011       .  S
O1757      C1758   1.266       .  A
C1758      O1759   1.259       .  A
O1759     Cr1766   1.976       .  S
O1760      C1761   1.267       .  A
C1761      C1878   1.507       .  S
C1761      O1762   1.259       .  A
O1763     Cr1767   2.024       .  S
O1763      C1764   1.268       .  A
Cr1765     O1768   1.775       .  S
Cr1766     O1768   1.768       .  S
Cr1767     O1768   1.777       .  S
O1769     Cr1787   2.025       .  S
O1769      C1777   1.276       .  A
O1770     Cr1787   1.967       .  S
O1770      C1771   1.258       .  A
C1771      O1772   1.266       .  A
O1772     Cr1788   2.009       .  S
O1773     Cr1788   1.981       .  S
O1773      C1774   1.259       .  A
C1774      C2102   1.497       .  S
C1774      O1775   1.263       .  A
O1775     Cr1789   2.008       .  S
O1776     Cr1789   1.963       .  S
O1776      C1777   1.259       .  A
C1777      C1793   1.470       .  S
O1778     Cr1787   1.970       .  S
O1778      C1786   1.252       .  A
O1779     Cr1787   2.007       .  S
O1779      C1780   1.266       .  A
C1780      C1836   1.509       .  S
C1780      O1781   1.257       .  A
O1781     Cr1788   1.963       .  S
O1782     Cr1788   2.013       .  S
O1782      C1783   1.269       .  A
C1783      C1861   1.502       .  S
C1783      O1784   1.260       .  A
O1784     Cr1789   1.961       .  S
O1785     Cr1789   2.019       .  S
O1785      C1786   1.263       .  A
C1786      C1920   1.492       .  S
Cr1787     O1790   1.775       .  S
Cr1788     O1790   1.768       .  S
Cr1789     O1790   1.785       .  S
O1791     Cr1809   2.021       .  S
O1791      C1799   1.275       .  A
O1792     Cr1809   1.964       .  S
O1792      C1793   1.256       .  A
C1793      O1794   1.267       .  A
O1794     Cr1810   2.010       .  S
O1795     Cr1810   2.004       .  S
O1795      C1796   1.265       .  A
C1796      C1948   1.507       .  S
C1796      O1797   1.255       .  A
O1797     Cr1811   1.978       .  S
O1798     Cr1811   1.974       .  S
O1798      C1799   1.262       .  A
O1800     Cr1809   1.963       .  S
O1800      C1808   1.248       .  A
O1801     Cr1809   2.004       .  S
O1801      C1802   1.263       .  A
C1802      C1892   1.515       .  S
C1802      O1803   1.258       .  A
O1803     Cr1810   1.978       .  S
O1804     Cr1810   1.991       .  S
O1804      C1805   1.266       .  A
C1805      C1850   1.499       .  S
C1805      O1806   1.269       .  A
O1806     Cr1811   1.988       .  S
O1807     Cr1811   2.003       .  S
O1807      C1808   1.257       .  A
C1808      C1819   1.506       .  S
Cr1809     O1812   1.787       .  S
Cr1810     O1812   1.785       .  S
Cr1811     O1812   1.791       .  S
C1813      N1814   1.362       .  A
C1813      N1818   1.357       .  A
C1813      C2130   1.519       .  S
N1814      C1815   1.363   1_556  A
C1815      N1816   1.357       .  A
C1815      C2607   1.498   1_545  S
N1816      C1817   1.352       .  A
C1817      N1818   1.355   1_554  A
C1817      C1822   1.489       .  S
C1819      C1820   1.422       .  A
C1819      C1824   1.425       .  A
C1820      C1821   1.415       .  A
C1820      C1825   1.452       .  S
C1821      C1822   1.414       .  A
C1821      C1828   1.451       .  S
C1822      C1823   1.411       .  A
C1823      C1824   1.407       .  A
C1823      C1826   1.455       .  S
C1824      C1827   1.451       .  S
C1825      N1832   1.157       .  T
C1826      N1831   1.157   1_554  T
C1827      N1829   1.157       .  T
C1828      N1830   1.158       .  T
C1833      C2589   1.498       .  S
C1833      C1834   1.417       .  A
C1833      C1838   1.413       .  A
C1834      C1835   1.411       .  A
C1834      C2613   1.453       .  S
C1835      C1836   1.425       .  A
C1835      C1842   1.455       .  S
C1836      C1837   1.422       .  A
C1837      C1838   1.415       .  A
C1837      C1840   1.451       .  S
C1838      C1841   1.452       .  S
C1839      C2608   1.453   1_545  S
C1839      N1846   1.157       .  T
C1840      N1845   1.158       .  T
C1841      N1843   1.157   1_554  T
C1842      N1844   1.157       .  T
C1847      C1848   1.404       .  A
C1847      C1852   1.413       .  A
C1848      C1849   1.407       .  A
C1848      C1853   1.454       .  S
C1849      C1850   1.428       .  A
C1849      C1856   1.453       .  S
C1850      C1851   1.418       .  A
C1851      C1852   1.410       .  A
C1851      C1854   1.450       .  S
C1852      C1855   1.453       .  S
C1853      N1860   1.157       .  T
C1854      N1859   1.157       .  T
C1855      N1857   1.157       .  T
C1856      N1858   1.158       .  T
C1861      C2636   1.426       .  A
C1861      C1866   1.426       .  A
C1862      C2635   1.426   1_545  A
C1862      C1863   1.408       .  A
C1862      C2641   1.453   1_545  S
C1863      C1864   1.412       .  A
C1863      C1870   1.455       .  S
C1864      C1865   1.407       .  A
C1865      C2640   1.407   1_545  A
C1865      C1868   1.455       .  S
C1866      C2639   1.407       .  A
C1866      C1869   1.451       .  S
C1867      C2636   1.453       .  S
C1867      N1874   1.157       .  T
C1868      N1873   1.157       .  T
C1869      N1871   1.157       .  T
C1870      N1872   1.158       .  T
C1875      C1876   1.414       .  A
C1875      C1880   1.417       .  A
C1876      C1877   1.411       .  A
C1876      C1881   1.454       .  S
C1877      C1878   1.424       .  A
C1877      C1884   1.453       .  S
C1878      C1879   1.424       .  A
C1879      C1880   1.409       .  A
C1879      C1882   1.453       .  S
C1880      C1883   1.454       .  S
C1881      N1888   1.158       .  T
C1882      N1887   1.157       .  T
C1883      N1885   1.158       .  T
C1884      N1886   1.158       .  T
C1889      C1890   1.416       .  A
C1889      C1894   1.414       .  A
C1890      C1891   1.422       .  A
C1890      C1895   1.450   1_554  S
C1891      C1892   1.422       .  A
C1891      C1898   1.451       .  S
C1892      C1893   1.424       .  A
C1893      C1894   1.411       .  A
C1893      C1896   1.451       .  S
C1894      C1897   1.455       .  S
C1895      N1902   1.157       .  T
C1896      N1901   1.156       .  T
C1897      N1899   1.158       .  T
C1898      N1900   1.157       .  T
C1903      C1904   1.413       .  A
C1903      C1908   1.418       .  A
C1904      C1905   1.413       .  A
C1904      C1909   1.454       .  S
C1905      C1906   1.429       .  A
C1905      C1912   1.452       .  S
C1906      C1907   1.422       .  A
C1907      C1908   1.420       .  A
C1907      C1910   1.451       .  S
C1908      C1911   1.452       .  S
C1909      N1916   1.158   1_554  T
C1910      N1915   1.157       .  T
C1911      N1913   1.157       .  T
C1912      N1914   1.157       .  T
C1917      C2505   1.482       .  S
C1917      C1918   1.412       .  A
C1917      C1922   1.408       .  A
C1918      C1919   1.417       .  A
C1918      C1923   1.449       .  S
C1919      C1920   1.414       .  A
C1919      C1926   1.449       .  S
C1920      C1921   1.418       .  A
C1921      C1922   1.409       .  A
C1921      C1924   1.450       .  S
C1922      C1925   1.452       .  S
C1923      N1930   1.157       .  T
C1924      N1929   1.156       .  T
C1925      N1927   1.157       .  T
C1926      N1928   1.157       .  T
C1931      C1932   1.417       .  A
C1931      C1936   1.414       .  A
C1932      C1933   1.408       .  A
C1932      C1937   1.449       .  S
C1933      C1934   1.407       .  A
C1933      C1940   1.453       .  S
C1934      C1935   1.412       .  A
C1935      C1936   1.416       .  A
C1935      C1938   1.449       .  S
C1937      N1944   1.156       .  T
C1938      N1943   1.157   1_554  T
C1939      N1941   1.157       .  T
C1940      N1942   1.157       .  T
C1945      C1946   1.405       .  A
C1945      C1950   1.416       .  A
C1946      C1947   1.407       .  A
C1946      C1951   1.452       .  S
C1947      C1948   1.427       .  A
C1947      C1954   1.453       .  S
C1948      C1949   1.415       .  A
C1949      C1950   1.422       .  A
C1949      C1952   1.448       .  S
C1950      C1953   1.449       .  S
C1951      N1958   1.157       .  T
C1952      N1957   1.157       .  T
C1953      N1955   1.157       .  T
C1954      N1956   1.158       .  T
C1959      C1960   1.426       .  A
C1959      C1964   1.423       .  A
C1960      C1961   1.415       .  A
C1960      C1965   1.452       .  S
C1961      C1962   1.409       .  A
C1961      C1968   1.452       .  S
C1962      C1963   1.416       .  A
C1963      C1964   1.416       .  A
C1963      C1966   1.452       .  S
C1964      C1967   1.451       .  S
C1965      N1972   1.157       .  T
C1966      N1971   1.157       .  T
C1967      N1969   1.157       .  T
C1968      N1970   1.157       .  T
C1973      C1974   1.408       .  A
C1973      C1978   1.414       .  A
C1974      C1975   1.410       .  A
C1974      C1979   1.455       .  S
C1975      C1976   1.424       .  A
C1975      C1982   1.447       .  S
C1976      C1977   1.417       .  A
C1977      C1978   1.418       .  A
C1977      C1980   1.451       .  S
C1978      C1981   1.447       .  S
C1979      N1986   1.157       .  T
C1980      N1985   1.158       .  T
C1981      N1983   1.156       .  T
C1982      N1984   1.155       .  T
C1987      C1988   1.411       .  A
C1987      C1992   1.406       .  A
C1988      C1989   1.407       .  A
C1988      C1993   1.455       .  S
C1989      C1990   1.421       .  A
C1989      C1996   1.449       .  S
C1990      C1991   1.427       .  A
C1991      C1992   1.408       .  A
C1991      C1994   1.453       .  S
C1992      C1995   1.453       .  S
C1993      N2000   1.157       .  T
C1994      N1999   1.158       .  T
C1995      N1997   1.157       .  T
C1996      N1998   1.156       .  T
C2001      C2002   1.421       .  A
C2001      C2006   1.419       .  A
C2002      C2003   1.407       .  A
C2002      C2007   1.453       .  S
C2003      C2004   1.408       .  A
C2003      C2010   1.450       .  S
C2004      C2005   1.408       .  A
C2005      C2006   1.407       .  A
C2005      C2008   1.453       .  S
C2006      C2009   1.452       .  S
C2007      N2014   1.158       .  T
C2008      N2013   1.157       .  T
C2009      N2011   1.157       .  T
C2010      N2012   1.156       .  T
C2015      C2016   1.412       .  A
C2015      C2020   1.414       .  A
C2016      C2017   1.408       .  A
C2016      C2021   1.454       .  S
C2017      C2018   1.421       .  A
C2017      C2024   1.452       .  S
C2018      C2019   1.424       .  A
C2019      C2020   1.406       .  A
C2019      C2022   1.453       .  S
C2020      C2023   1.455       .  S
C2021      N2028   1.157       .  T
C2022      N2027   1.157       .  T
C2023      N2025   1.158       .  T
C2024      N2026   1.157       .  T
C2029      C2030   1.427   1_655  A
C2029      C2034   1.423       .  A
C2030      C2031   1.410       .  A
C2030      C2035   1.451       .  S
C2031      C2032   1.410       .  A
C2031      C2038   1.455       .  S
C2032      C2033   1.412   1_455  A
C2033      C2034   1.418       .  A
C2033      C2036   1.451       .  S
C2034      C2037   1.450       .  S
C2036      N2041   1.157       .  T
C2037      N2039   1.157       .  T
C2038      N2040   1.158       .  T
C2043      C2044   1.412   1_455  A
C2044      C2045   1.417       .  A
C2044      C2049   1.449       .  S
C2045      C2046   1.415   1_655  A
C2045      C2052   1.449       .  S
C2047      C2048   1.408       .  A
C2047      C2050   1.450       .  S
C2048      C2051   1.453       .  S
C2049      N2056   1.157       .  T
C2050      N2055   1.156       .  T
C2051      N2053   1.157       .  T
C2052      N2054   1.157       .  T
C2057      C2058   1.414       .  A
C2057      C2062   1.414       .  A
C2058      C2059   1.415       .  A
C2058      C2063   1.452       .  S
C2059      C2066   1.453       .  S
C2060      C2061   1.430       .  A
C2061      C2064   1.453       .  S
C2062      C2065   1.454       .  S
C2063      N2070   1.157       .  T
C2064      N2069   1.158       .  T
C2065      N2067   1.158       .  T
C2066      N2068   1.158       .  T
C2071      C2072   1.409       .  A
C2071      C2076   1.410       .  A
C2072      C2073   1.408       .  A
C2072      C2077   1.453       .  S
C2073      C2074   1.416       .  A
C2073      C2080   1.451       .  S
C2074      C2075   1.414       .  A
C2075      C2076   1.413       .  A
C2075      C2078   1.450       .  S
C2076      C2079   1.450       .  S
C2077      N2084   1.157       .  T
C2078      N2083   1.157       .  T
C2079      N2855   1.157       .  T
C2080      N2082   1.157       .  T
N2081      C2853   1.157   1_545  T
C2085      C2086   1.416       .  A
C2085      C2090   1.410       .  A
C2086      C2087   1.420       .  A
C2086      C2091   1.450       .  S
C2087      C2088   1.420       .  A
C2087      C2094   1.450       .  S
C2088      C2089   1.429       .  A
C2089      C2090   1.407       .  A
C2089      C2092   1.453       .  S
C2090      C2093   1.456       .  S
C2091      N2872   1.157       .  T
C2092      N2097   1.157       .  T
C2093      N2095   1.158       .  T
C2094      N2870   1.157       .  T
N2096      C2868   1.157   1_545  T
N2098      C2865   1.157       .  T
C2099      C2100   1.430       .  A
C2099      C2104   1.429       .  A
C2100      C2101   1.416       .  A
C2100      C2105   1.452       .  S
C2101      C2102   1.411       .  A
C2101      C2108   1.453       .  S
C2102      C2103   1.413       .  A
C2103      C2104   1.415       .  A
C2103      C2106   1.454       .  S
C2104      C2107   1.453       .  S
C2105      N2112   1.158       .  T
C2106      N2111   1.157       .  T
C2107      N2109   1.158       .  T
C2108      N2110   1.158       .  T
C2113      C2114   1.427       .  A
C2113      C2118   1.425       .  A
C2114      C2115   1.419       .  A
C2114      C2119   1.449       .  S
C2115      C2116   1.414       .  A
C2115      C2122   1.453       .  S
C2116      C2117   1.413       .  A
C2117      C2118   1.422       .  A
C2117      C2120   1.451       .  S
C2118      C2121   1.450       .  S
C2119      N2126   1.157       .  T
C2120      N2125   1.158       .  T
C2121      N2123   1.157       .  T
C2122      N2124   1.157       .  T
C2127      C2128   1.417       .  A
C2127      C2132   1.417       .  A
C2128      C2129   1.416       .  A
C2128      C2133   1.453       .  S
C2129      C2130   1.425       .  A
C2129      C2136   1.452       .  S
C2130      C2131   1.429       .  A
C2131      C2132   1.414       .  A
C2131      C2134   1.454       .  S
C2132      C2135   1.455       .  S
C2133      N2140   1.157   1_545  T
C2134      N2139   1.158       .  T
C2135      N2137   1.158       .  T
C2136      N2138   1.158   1_545  T
C2141      C2142   1.417       .  A
C2141      C2146   1.411       .  A
C2142      C2143   1.421       .  A
C2142      C2147   1.452       .  S
C2143      C2144   1.429       .  A
C2143      C2150   1.451       .  S
C2144      C2145   1.432       .  A
C2145      C2146   1.414       .  A
C2145      C2148   1.452       .  S
C2146      C2149   1.455       .  S
C2147      N2154   1.158       .  T
C2148      N2153   1.158       .  T
C2149      N2151   1.158       .  T
C2150      N2152   1.158       .  T
C2155      C2156   1.413       .  A
C2155      C2160   1.411       .  A
C2156      C2157   1.421       .  A
C2156      C2161   1.449       .  S
C2157      C2158   1.421       .  A
C2157      C2164   1.449       .  S
C2158      C2159   1.424       .  A
C2159      C2160   1.410       .  A
C2159      C2162   1.451       .  S
C2160      C2163   1.453       .  S
C2161      N2168   1.157       .  T
C2162      N2167   1.157       .  T
C2163      N2165   1.158       .  T
C2164      N2166   1.157       .  T
C2169      C2170   1.406       .  A
C2169      C2174   1.413       .  A
C2170      C2171   1.415       .  A
C2170      C2175   1.447       .  S
C2171      C2172   1.422       .  A
C2171      C2952   1.451       .  S
C2172      C2173   1.421       .  A
C2173      C2174   1.414       .  A
C2173      C2176   1.451       .  S
C2174      C2177   1.452       .  S
C2175      N2956   1.156       .  T
C2176      N2181   1.157       .  T
C2177      N2179   1.157       .  T
C2178      C2945   1.451       .  S
C2178      N2180   1.157       .  T
N2182      C2949   1.156       .  T
C2183      C2184   1.423       .  A
C2183      C2188   1.430       .  A
C2184      C2185   1.422       .  A
C2184      C2189   1.450       .  S
C2185      C2186   1.415       .  A
C2185      C2966   1.449       .  S
C2186      C2358   1.506       .  S
C2186      C2187   1.413       .  A
C2187      C2188   1.414       .  A
C2187      C2190   1.453       .  S
C2188      C2191   1.452       .  S
C2189      N2196   1.157       .  T
C2190      N2195   1.157       .  T
C2191      N2193   1.158       .  T
C2192      C2959   1.449       .  S
C2192      N2194   1.158   1_565  T
C2197      C2198   1.414       .  A
C2197      C2202   1.411       .  A
C2198      C2199   1.406       .  A
C2198      C2203   1.450       .  S
C2199      C2200   1.406       .  A
C2199      C2206   1.451       .  S
C2200      C2201   1.407       .  A
C2201      C2202   1.399       .  A
C2201      C2204   1.451       .  S
C2202      C2205   1.450       .  S
C2203      N2210   1.157       .  T
C2204      N2209   1.156       .  T
C2205      N2207   1.156       .  T
C2206      N2208   1.157       .  T
C2211      C2212   1.411       .  A
C2211      C2216   1.406       .  A
C2212      C2213   1.402       .  A
C2212      C2217   1.450       .  S
C2213      C2988   1.407       .  A
C2213      C2220   1.454       .  S
C2214      C2987   1.407       .  A
C2214      C2215   1.410       .  A
C2215      C2990   1.405       .  A
C2215      C2218   1.450       .  S
C2216      C2989   1.405       .  A
C2216      C2219   1.450       .  S
C2218      N2223   1.157       .  T
C2219      N2221   1.157       .  T
C2220      N2222   1.157       .  T
C2225      C3000   1.418       .  A
C2225      C2230   1.418       .  A
C2226      C2999   1.418   1_545  A
C2226      C2227   1.406       .  A
C2226      C2231   1.453       .  S
C2227      C2228   1.410       .  A
C2227      C2234   1.446       .  S
C2228      C3003   1.411   1_545  A
C2229      C3002   1.411       .  A
C2229      C2230   1.410       .  A
C2229      C2232   1.452       .  S
C2230      C2233   1.452       .  S
C2232      N2237   1.157       .  T
C2233      N2235   1.157       .  T
C2234      N2236   1.155       .  T
C2239      C2240   1.419       .  A
C2239      C2244   1.415       .  A
C2240      C2241   1.415       .  A
C2241      C2242   1.419       .  A
C2241      C2248   1.452       .  S
C2242      C2243   1.424       .  A
C2243      C2244   1.411       .  A
C2243      C2246   1.452       .  S
C2244      C2247   1.454       .  S
C2245      N2252   1.158       .  T
C2246      N2251   1.157       .  T
C2247      N2249   1.157       .  T
C2248      N2250   1.157       .  T
C2253      C2254   1.426       .  A
C2253      C2258   1.423       .  A
C2254      C2255   1.411       .  A
C2254      C2259   1.452       .  S
C2255      C2256   1.410       .  A
C2255      C2262   1.452       .  S
C2256      C2396   1.488       .  S
C2256      C2257   1.411       .  A
C2257      C2258   1.413       .  A
C2257      C3034   1.452       .  S
C2258      C2261   1.452       .  S
C2259      N2266   1.158       .  T
C2260      C3031   1.452       .  S
C2260      N2265   1.158   1_565  T
C2261      N2263   1.157       .  T
C2262      N2264   1.157       .  T
C2267      C2268   1.425       .  A
C2267      C2272   1.424       .  A
C2268      C2269   1.412       .  A
C2268      C2273   1.454       .  S
C2269      C2270   1.418       .  A
C2270      C2271   1.413       .  A
C2271      C2272   1.415       .  A
C2271      C2274   1.452       .  S
C2272      C2275   1.451       .  S
C2274      N2279   1.157       .  T
C2275      N2277   1.158       .  T
C2276      N2278   1.158       .  T
C2281      C2282   1.420       .  A
C2281      C2286   1.415       .  A
C2282      C2283   1.419       .  A
C2282      C2287   1.453       .  S
C2283      C2284   1.423       .  A
C2283      C2290   1.452       .  S
C2284      C2285   1.428       .  A
C2285      C2286   1.414       .  A
C2285      C2288   1.453       .  S
C2286      C2289   1.453       .  S
C2287      N2294   1.157       .  T
C2288      N2293   1.157       .  T
C2289      N2291   1.157       .  T
C2290      N2292   1.158       .  T
C2295      C2296   1.410       .  A
C2295      C2300   1.414       .  A
C2296      C2297   1.410       .  A
C2296      C2301   1.448       .  S
C2297      C2298   1.426       .  A
C2297      C2304   1.453       .  S
C2299      C2302   1.450       .  S
C2300      C2303   1.452       .  S
C2301      N2308   1.156       .  T
C2302      N2307   1.158       .  T
C2303      N2305   1.157       .  T
C2304      N2306   1.157       .  T
C2309      C2310   1.410       .  A
C2309      C2314   1.413       .  A
C2310      C2311   1.401       .  A
C2310      C2315   1.456       .  S
C2311      C2312   1.422       .  A
C2311      C2318   1.454       .  S
C2312      C2313   1.414       .  A
C2313      C2314   1.417       .  A
C2313      C2316   1.449   1_545  S
C2314      C2317   1.449       .  S
C2315      N2322   1.157       .  T
C2316      N3095   1.157       .  T
C2317      N2319   1.157   1_545  T
C2318      N2320   1.157       .  T
N2321      C3090   1.157       .  T
C2323      N2324   1.350       .  A
C2323      N2328   1.358       .  A
C2323      C3083   1.481       .  S
N2324      C2325   1.348       .  A
C2325      N2326   1.361       .  A
N2326      C2327   1.368       .  A
C2327      N2328   1.365       .  A
C2327      C3055   1.508       .  S
C2329      N2330   1.361       .  A
C2329      N2334   1.358       .  A
C2329      C3041   1.512       .  S
N2330      C2331   1.362       .  A
C2331      N2332   1.357       .  A
C2331      C3027   1.509       .  S
N2332      C2333   1.355       .  A
C2333      N2334   1.357       .  A
C2335      N2336   1.359       .  A
C2335      N2340   1.357       .  A
C2335      C2999   1.491       .  S
C2337      C2985   1.462       .  S
N2338      C2339   1.349       .  A
C2339      N2340   1.352       .  A
C2339      C2974   1.457       .  S
O2341     Cr2359   2.022       .  S
O2341      C2349   1.271       .  A
O2342     Cr2359   1.976       .  S
O2342      C2343   1.261       .  A
C2343      C2371   1.472       .  S
C2343      O2344   1.268       .  A
O2344     Cr2360   2.011       .  S
O2345     Cr2360   1.978       .  S
O2345      C2346   1.257       .  A
C2346      C2943   1.490       .  S
C2346      O2347   1.263       .  A
O2347     Cr2361   2.011       .  S
O2348     Cr2361   1.975       .  S
O2348      C2349   1.264       .  A
C2349      C2387   1.473       .  S
O2350     Cr2359   1.995       .  S
O2350      C2358   1.260       .  A
O2351     Cr2359   2.011       .  S
O2351      C2352   1.264       .  A
C2352      C3069   1.496       .  S
C2352      O2353   1.255       .  A
O2353     Cr2360   1.966       .  S
O2354     Cr2360   2.006       .  S
O2354      C2355   1.267       .  A
C2355      C3002   1.479       .  S
C2355      O2356   1.263       .  A
O2356     Cr2361   1.974       .  S
Cr2359     O2362   1.783       .  S
Cr2360     O2362   1.781       .  S
Cr2361     O2362   1.779       .  S
O2363     Cr2381   2.023       .  S
O2363      C2371   1.274       .  A
O2364     Cr2381   1.947       .  S
O2364      C2365   1.254       .  A
C2365      C2393   1.462       .  S
C2365      O2366   1.265       .  A
O2366     Cr2382   2.012       .  S
O2367     Cr2382   1.986       .  S
O2367      C2368   1.260       .  A
C2368      C2915   1.506       .  S
C2368      O2369   1.266       .  A
O2369     Cr2383   2.009       .  S
O2370     Cr2383   1.973       .  S
O2370      C2371   1.264       .  A
O2372     Cr2381   1.965       .  S
O2372      C2380   1.251       .  A
O2373     Cr2381   2.020       .  S
O2373      C2374   1.268       .  A
C2374      C2932   1.514       .  S
C2374      O2375   1.256       .  A
O2375     Cr2382   1.968       .  S
O2376     Cr2382   2.005       .  S
O2376      C2377   1.267       .  A
C2377      C2971   1.469       .  S
C2377      O2378   1.261       .  A
O2378     Cr2383   1.959       .  S
O2379     Cr2383   2.018       .  S
O2379      C2380   1.264       .  A
C2380      C3016   1.510       .  S
Cr2381     O2384   1.771       .  S
Cr2382     O2384   1.780       .  S
Cr2383     O2384   1.774       .  S
O2385     Cr2403   1.953       .  S
O2385      C2393   1.257       .  A
O2386     Cr2403   2.026       .  S
O2386      C2387   1.274       .  A
C2387      O2388   1.264       .  A
O2388     Cr2404   1.973       .  S
O2389     Cr2404   2.009       .  S
O2389      C2390   1.262       .  A
C2390      C2901   1.502       .  S
C2390      O2391   1.259       .  A
O2391     Cr2405   1.982       .  S
O2392     Cr2405   2.008       .  S
O2392      C2393   1.264       .  A
O2394     Cr2403   2.017       .  S
O2394      C2402   1.268       .  A
O2395     Cr2403   1.970       .  S
O2395      C2396   1.254       .  A
O2398     Cr2404   1.963       .  S
O2398      C2399   1.260       .  A
C2399      C2988   1.460       .  S
C2399      O2400   1.266       .  A
O2400     Cr2405   2.002       .  S
O2401     Cr2405   1.967       .  S
O2401      C2402   1.257       .  A
C2402      C3058   1.519       .  S
Cr2403     O2406   1.769       .  S
Cr2404     O2406   1.776       .  S
Cr2405     O2406   1.773       .  S
C2407      N2408   1.372       .  A
C2407      N2412   1.367       .  A
C2407      C2887   1.527       .  S
N2408      C2409   1.368       .  A
C2409      N2410   1.355       .  A
C2409      C2957   1.525       .  S
N2410      C2411   1.354       .  A
C2411      N2412   1.361       .  A
C2411      C2929   1.497       .  S
C2413      N2414   1.359       .  A
C2413      N2418   1.358       .  A
C2413      C2873   1.522       .  S
N2414      C2415   1.360       .  A
C2415      N2416   1.358       .  A
C2415      C2859   1.495       .  S
N2416      C2417   1.358       .  A
C2417      N2418   1.358       .  A
C2417      C2845   1.477       .  S
C2419      N2420   1.361       .  A
C2419      N2424   1.356       .  A
C2419      C2834   1.520       .  S
N2420      C2421   1.360       .  A
C2421      N2422   1.360       .  A
C2421      C2817   1.482       .  S
N2422      C2423   1.358       .  A
C2423      N2424   1.356       .  A
C2423      C2806   1.491       .  S
C2425      N2426   1.354       .  A
C2425      N2430   1.354       .  A
C2425      C2789   1.483       .  S
N2426      C2427   1.355       .  A
C2427      N2428   1.355       .  A
C2427      C2775   1.490       .  S
N2428      C2429   1.354       .  A
C2429      N2430   1.353       .  A
C2429      C2761   1.475       .  S
O2431      C2439   1.252       .  A
O2432     Cr2449   2.011       .  S
O2432      C2433   1.269       .  A
C2433      C2461   1.468   1_565  S
C2433      O2434   1.257       .  A
O2434     Cr2450   1.971       .  S
O2435     Cr2450   2.028       .  S
O2435      C2436   1.271       .  A
C2436      C3044   1.499       .  S
C2436      O2437   1.258       .  A
O2438     Cr2451   2.019   1_655  S
O2438      C2439   1.266       .  A
C2439      C2477   1.458       .  S
O2440      C2448   1.269       .  A
O2441     Cr2449   1.944       .  S
O2441      C2442   1.251       .  A
C2442      C2862   1.514       .  S
C2442      O2443   1.274       .  A
O2443     Cr2450   2.038       .  S
O2444     Cr2450   1.951       .  S
O2444      C2445   1.256       .  A
C2445      C2792   1.499       .  S
C2445      O2446   1.267       .  A
O2447     Cr2451   1.967       .  S
O2447      C2448   1.257       .  A
C2448      C2820   1.492       .  S
Cr2449     O2452   1.766       .  S
Cr2450     O2452   1.772       .  S
O2453      C2461   1.258       .  A
O2454      C2455   1.277       .  A
C2455      C2483   1.477   1_545  S
O2456     Cr2472   1.959       .  S
O2457      C2458   1.259       .  A
C2458      C3086   1.492       .  S
C2458      O2459   1.261       .  A
O2459     Cr2473   1.986       .  S
O2460     Cr2473   2.011       .  S
O2462     Cr2471   2.021       .  S
O2462      C2470   1.270       .  A
O2463      C2464   1.251   1_455  A
C2464      C2803   1.512       .  S
C2464      O2465   1.262       .  A
O2465     Cr2472   2.014       .  S
O2466      C2467   1.262       .  A
C2467      C2764   1.499       .  S
C2467      O2468   1.267       .  A
O2468     Cr2473   2.003       .  S
O2469     Cr2473   1.967       .  S
O2469      C2470   1.256       .  A
C2470      C2750   1.506       .  S
Cr2471     O2474   1.779       .  S
Cr2473     O2474   1.778       .  S
O2475     Cr2493   2.012       .  S
O2475      C2483   1.264       .  A
O2476     Cr2493   1.950       .  S
O2476      C2477   1.260       .  A
C2477      O2478   1.269       .  A
O2478     Cr2494   2.017       .  S
O2479     Cr2494   1.995       .  S
O2479      C2480   1.265       .  A
C2480      C2890   1.507       .  S
C2480      O2481   1.264       .  A
O2481     Cr2495   2.010       .  S
O2482     Cr2495   1.989       .  S
O2482      C2483   1.266       .  A
O2484     Cr2493   1.968       .  S
O2484      C2492   1.257       .  A
O2485     Cr2493   2.001       .  S
O2485      C2486   1.258       .  A
C2486      C2736   1.498       .  S
C2486      O2487   1.259       .  A
O2487     Cr2494   1.988       .  S
O2488     Cr2494   1.996       .  S
O2488      C2489   1.264       .  A
C2489      C2778   1.473       .  S
C2489      O2490   1.262       .  A
O2490     Cr2495   1.970       .  S
O2491     Cr2495   2.014       .  S
O2491      C2492   1.266       .  A
C2492      C2848   1.484       .  S
Cr2493     O2496   1.778       .  S
Cr2494     O2496   1.778       .  S
Cr2495     O2496   1.775       .  S
C2497      N2498   1.363       .  A
C2497      N2502   1.361       .  A
C2497      C2719   1.490       .  S
N2498      C2499   1.365       .  A
C2499      N2500   1.360       .  A
C2499      C2733   1.515       .  S
N2500      C2501   1.358       .  A
C2501      N2502   1.357       .  A
C2501      C2747   1.491       .  S
C2503      N2504   1.363       .  A
C2503      N2508   1.363       .  A
C2503      C2946   1.505       .  S
N2504      C2505   1.360   1_556  A
C2505      N2506   1.355       .  A
N2506      C2507   1.356       .  A
C2507      N2508   1.360   1_554  A
C2507      C2708   1.482       .  S
C2509      N2510   1.368       .  A
C2509      N2514   1.362       .  A
C2509      C2918   1.529       .  S
N2510      C2511   1.365   1_556  A
C2511      N2512   1.359       .  A
C2511      C2663   1.502       .  S
N2512      C2513   1.354       .  A
C2513      N2514   1.359   1_554  A
C2513      C2677   1.505       .  S
C2515      N2516   1.356       .  A
C2515      N2520   1.352       .  A
C2515      C2621   1.479       .  S
N2516      C2517   1.357       .  A
C2517      N2518   1.356       .  A
C2517      C2649   1.494       .  S
N2518      C2519   1.354       .  A
C2519      N2520   1.354       .  A
C2519      C2638   1.478       .  S
O2521     Cr2539   2.017       .  S
O2521      C2529   1.272       .  A
O2522     Cr2539   1.961       .  S
O2522      C2523   1.255       .  A
C2523      C2573   1.472       .  S
C2523      O2524   1.269       .  A
O2524     Cr2540   2.026       .  S
O2525     Cr2540   1.981       .  S
O2525      C2526   1.262       .  A
C2526      C2831   1.499       .  S
C2526      O2527   1.266       .  A
O2527     Cr2541   2.009       .  S
O2528     Cr2541   1.963       .  S
O2528      C2529   1.257       .  A
C2529      C2545   1.468       .  S
O2530     Cr2539   1.966       .  S
O2530      C2538   1.253       .  A
O2531     Cr2539   2.011       .  S
O2531      C2532   1.266       .  A
C2532      O2533   1.259       .  A
O2533     Cr2540   1.976       .  S
O2534      C2535   1.267       .  A
C2535      C2652   1.507       .  S
C2535      O2536   1.259       .  A
O2537     Cr2541   2.024       .  S
O2537      C2538   1.268       .  A
Cr2539     O2542   1.775       .  S
Cr2540     O2542   1.768       .  S
Cr2541     O2542   1.777       .  S
O2543     Cr2561   2.025       .  S
O2543      C2551   1.276       .  A
O2544     Cr2561   1.967       .  S
O2544      C2545   1.258       .  A
C2545      O2546   1.266       .  A
O2546     Cr2562   2.009       .  S
O2547     Cr2562   1.981       .  S
O2547      C2548   1.259       .  A
C2548      C2876   1.497       .  S
C2548      O2549   1.263       .  A
O2549     Cr2563   2.008       .  S
O2550     Cr2563   1.963       .  S
O2550      C2551   1.259       .  A
C2551      C2567   1.470       .  S
O2552     Cr2561   1.970       .  S
O2552      C2560   1.252       .  A
O2553     Cr2561   2.007       .  S
O2553      C2554   1.266       .  A
C2554      C2610   1.509       .  S
C2554      O2555   1.257       .  A
O2555     Cr2562   1.963       .  S
O2556     Cr2562   2.013       .  S
O2556      C2557   1.269       .  A
C2557      C2635   1.502       .  S
C2557      O2558   1.260       .  A
O2558     Cr2563   1.961       .  S
O2559     Cr2563   2.019       .  S
O2559      C2560   1.263       .  A
C2560      C2694   1.492       .  S
Cr2561     O2564   1.775       .  S
Cr2562     O2564   1.768       .  S
Cr2563     O2564   1.785       .  S
O2565     Cr2583   2.021       .  S
O2565      C2573   1.275       .  A
O2566     Cr2583   1.964       .  S
O2566      C2567   1.256       .  A
C2567      O2568   1.267       .  A
O2568     Cr2584   2.010       .  S
O2569     Cr2584   2.004       .  S
O2569      C2570   1.265       .  A
C2570      C2722   1.507       .  S
C2570      O2571   1.255       .  A
O2571     Cr2585   1.978       .  S
O2572     Cr2585   1.974       .  S
O2572      C2573   1.262       .  A
O2574     Cr2583   1.963       .  S
O2574      C2582   1.248       .  A
O2575     Cr2583   2.004       .  S
O2575      C2576   1.263       .  A
C2576      C2666   1.515       .  S
C2576      O2577   1.258       .  A
O2577     Cr2584   1.978       .  S
O2578     Cr2584   1.991       .  S
O2578      C2579   1.266       .  A
C2579      C2624   1.499       .  S
C2579      O2580   1.269       .  A
O2580     Cr2585   1.988       .  S
O2581     Cr2585   2.003       .  S
O2581      C2582   1.257       .  A
C2582      C2593   1.506       .  S
Cr2583     O2586   1.787       .  S
Cr2584     O2586   1.785       .  S
Cr2585     O2586   1.791       .  S
C2587      N2588   1.362       .  A
C2587      N2592   1.357       .  A
C2587      C2904   1.519       .  S
N2588      C2589   1.363   1_556  A
C2589      N2590   1.357       .  A
N2590      C2591   1.352       .  A
C2591      N2592   1.355   1_554  A
C2591      C2596   1.489       .  S
C2593      C2594   1.422       .  A
C2593      C2598   1.425       .  A
C2594      C2595   1.415       .  A
C2594      C2599   1.452       .  S
C2595      C2596   1.414       .  A
C2595      C2602   1.451       .  S
C2596      C2597   1.411       .  A
C2597      C2598   1.407       .  A
C2597      C2600   1.455       .  S
C2598      C2601   1.451       .  S
C2599      N2606   1.157       .  T
C2600      N2605   1.157   1_554  T
C2601      N2603   1.157       .  T
C2602      N2604   1.158       .  T
C2607      C2608   1.417       .  A
C2607      C2612   1.413       .  A
C2608      C2609   1.411       .  A
C2609      C2610   1.425       .  A
C2609      C2616   1.455       .  S
C2610      C2611   1.422       .  A
C2611      C2612   1.415       .  A
C2611      C2614   1.451       .  S
C2612      C2615   1.452       .  S
C2613      N2620   1.157       .  T
C2614      N2619   1.158       .  T
C2615      N2617   1.157   1_554  T
C2616      N2618   1.157       .  T
C2621      C2622   1.404       .  A
C2621      C2626   1.413       .  A
C2622      C2623   1.407       .  A
C2622      C2627   1.454       .  S
C2623      C2624   1.428       .  A
C2623      C2630   1.453       .  S
C2624      C2625   1.418       .  A
C2625      C2626   1.410       .  A
C2625      C2628   1.450       .  S
C2626      C2629   1.453       .  S
C2627      N2634   1.157       .  T
C2628      N2633   1.157       .  T
C2629      N2631   1.157       .  T
C2630      N2632   1.158       .  T
C2635      C2640   1.426       .  A
C2636      C2637   1.408       .  A
C2637      C2638   1.412       .  A
C2637      C2644   1.455       .  S
C2638      C2639   1.407       .  A
C2639      C2642   1.455       .  S
C2640      C2643   1.451       .  S
C2641      N2648   1.157       .  T
C2642      N2647   1.157       .  T
C2643      N2645   1.157       .  T
C2644      N2646   1.158       .  T
C2649      C2650   1.414       .  A
C2649      C2654   1.417       .  A
C2650      C2651   1.411       .  A
C2650      C2655   1.454       .  S
C2651      C2652   1.424       .  A
C2651      C2658   1.453       .  S
C2652      C2653   1.424       .  A
C2653      C2654   1.409       .  A
C2653      C2656   1.453       .  S
C2654      C2657   1.454       .  S
C2655      N2662   1.158       .  T
C2656      N2661   1.157       .  T
C2657      N2659   1.158       .  T
C2658      N2660   1.158       .  T
C2663      C2664   1.416       .  A
C2663      C2668   1.414       .  A
C2664      C2665   1.422       .  A
C2664      C2669   1.450   1_554  S
C2665      C2666   1.422       .  A
C2665      C2672   1.451       .  S
C2666      C2667   1.424       .  A
C2667      C2668   1.411       .  A
C2667      C2670   1.451       .  S
C2668      C2671   1.455       .  S
C2669      N2676   1.157       .  T
C2670      N2675   1.156       .  T
C2671      N2673   1.158       .  T
C2672      N2674   1.158       .  T
C2677      C2678   1.413       .  A
C2677      C2682   1.418       .  A
C2678      C2679   1.413       .  A
C2678      C2683   1.454       .  S
C2679      C2680   1.429       .  A
C2679      C2686   1.452       .  S
C2680      C2681   1.422       .  A
C2681      C2682   1.420       .  A
C2681      C2684   1.451       .  S
C2682      C2685   1.452       .  S
C2683      N2690   1.158   1_554  T
C2684      N2689   1.158       .  T
C2685      N2687   1.157       .  T
C2686      N2688   1.157       .  T
C2691      C2692   1.412       .  A
C2691      C2696   1.408       .  A
C2692      C2693   1.417       .  A
C2692      C2697   1.449       .  S
C2693      C2694   1.414       .  A
C2693      C2700   1.449       .  S
C2694      C2695   1.418       .  A
C2695      C2696   1.409       .  A
C2695      C2698   1.450       .  S
C2696      C2699   1.452   1_565  S
C2697      N2704   1.157       .  T
C2698      N2703   1.156       .  T
C2699      N2701   1.157       .  T
C2700      N2702   1.157       .  T
C2705      C2706   1.417       .  A
C2705      C2710   1.414       .  A
C2706      C2707   1.408       .  A
C2706      C2711   1.449       .  S
C2707      C2708   1.407       .  A
C2707      C2714   1.453       .  S
C2708      C2709   1.412       .  A
C2709      C2710   1.416       .  A
C2709      C2712   1.449       .  S
C2711      N2718   1.156       .  T
C2712      N2717   1.157   1_554  T
C2713      N2715   1.157       .  T
C2714      N2716   1.157       .  T
C2719      C2720   1.405       .  A
C2719      C2724   1.416       .  A
C2720      C2721   1.407       .  A
C2720      C2725   1.452       .  S
C2721      C2722   1.427       .  A
C2721      C2728   1.453       .  S
C2722      C2723   1.415       .  A
C2723      C2724   1.422       .  A
C2723      C2726   1.448       .  S
C2724      C2727   1.449       .  S
C2725      N2732   1.157       .  T
C2726      N2731   1.157       .  T
C2727      N2729   1.157       .  T
C2728      N2730   1.158       .  T
C2733      C2734   1.426       .  A
C2733      C2738   1.423       .  A
C2734      C2735   1.415       .  A
C2734      C2739   1.452       .  S
C2735      C2736   1.409       .  A
C2735      C2742   1.452       .  S
C2736      C2737   1.416       .  A
C2737      C2738   1.416       .  A
C2737      C2740   1.452       .  S
C2738      C2741   1.451       .  S
C2739      N2746   1.157       .  T
C2740      N2745   1.157       .  T
C2741      N2743   1.157       .  T
C2742      N2744   1.157       .  T
C2747      C2748   1.408       .  A
C2747      C2752   1.414       .  A
C2748      C2749   1.410       .  A
C2748      C2753   1.455       .  S
C2749      C2750   1.424       .  A
C2749      C2756   1.447       .  S
C2750      C2751   1.417       .  A
C2751      C2752   1.418       .  A
C2751      C2754   1.451       .  S
C2752      C2755   1.447       .  S
C2753      N2760   1.158       .  T
C2754      N2759   1.158       .  T
C2755      N2757   1.156       .  T
C2756      N2758   1.155       .  T
C2761      C2762   1.411       .  A
C2761      C2766   1.406       .  A
C2762      C2763   1.407       .  A
C2762      C2767   1.455       .  S
C2763      C2764   1.421       .  A
C2763      C2770   1.449       .  S
C2764      C2765   1.427       .  A
C2765      C2766   1.408       .  A
C2765      C2768   1.453       .  S
C2766      C2769   1.453       .  S
C2767      N2774   1.157       .  T
C2768      N2773   1.158       .  T
C2769      N2771   1.157       .  T
C2770      N2772   1.156       .  T
C2775      C2776   1.421       .  A
C2775      C2780   1.419       .  A
C2776      C2777   1.407       .  A
C2776      C2781   1.453       .  S
C2777      C2778   1.408       .  A
C2777      C2784   1.450       .  S
C2778      C2779   1.408       .  A
C2779      C2780   1.407       .  A
C2779      C2782   1.453       .  S
C2780      C2783   1.452       .  S
C2781      N2788   1.158       .  T
C2782      N2787   1.157       .  T
C2783      N2785   1.157       .  T
C2784      N2786   1.156       .  T
C2789      C2790   1.412       .  A
C2789      C2794   1.414       .  A
C2790      C2791   1.408       .  A
C2790      C2795   1.454       .  S
C2791      C2792   1.421       .  A
C2791      C2798   1.452       .  S
C2792      C2793   1.424       .  A
C2793      C2794   1.406       .  A
C2793      C2796   1.453       .  S
C2794      C2797   1.455       .  S
C2795      N2802   1.157       .  T
C2796      N2801   1.157       .  T
C2797      N2799   1.158       .  T
C2798      N2800   1.157       .  T
C2803      C2804   1.427   1_655  A
C2803      C2808   1.423       .  A
C2804      C2805   1.410       .  A
C2804      C2809   1.451       .  S
C2805      C2806   1.410       .  A
C2805      C2812   1.455       .  S
C2806      C2807   1.412   1_455  A
C2807      C2808   1.418       .  A
C2807      C2810   1.451       .  S
C2808      C2811   1.450       .  S
C2810      N2815   1.157       .  T
C2811      N2813   1.157       .  T
C2812      N2814   1.158       .  T
C2817      C2818   1.412   1_455  A
C2818      C2819   1.417       .  A
C2818      C2823   1.449       .  S
C2819      C2820   1.415   1_655  A
C2819      C2826   1.449       .  S
C2821      C2822   1.408       .  A
C2821      C2824   1.450       .  S
C2822      C2825   1.453       .  S
C2823      N2830   1.157       .  T
C2824      N2829   1.156       .  T
C2825      N2827   1.157       .  T
C2826      N2828   1.157       .  T
C2831      C2832   1.414       .  A
C2831      C2836   1.414       .  A
C2832      C2833   1.415       .  A
C2832      C2837   1.452       .  S
C2833      C2840   1.453       .  S
C2834      C2835   1.430       .  A
C2835      C2838   1.453       .  S
C2836      C2839   1.454       .  S
C2837      N2844   1.157       .  T
C2838      N2843   1.158       .  T
C2839      N2841   1.158       .  T
C2840      N2842   1.158       .  T
C2845      C2846   1.409       .  A
C2845      C2850   1.410       .  A
C2846      C2847   1.408       .  A
C2846      C2851   1.453       .  S
C2847      C2848   1.416       .  A
C2847      C2854   1.451       .  S
C2848      C2849   1.414       .  A
C2849      C2850   1.413       .  A
C2849      C2852   1.450       .  S
C2850      C2853   1.450       .  S
C2851      N2858   1.157       .  T
C2852      N2857   1.157   1_565  T
C2854      N2856   1.157       .  T
C2859      C2860   1.416       .  A
C2859      C2864   1.410       .  A
C2860      C2861   1.420       .  A
C2860      C2865   1.450       .  S
C2861      C2862   1.420       .  A
C2861      C2868   1.450       .  S
C2862      C2863   1.429       .  A
C2863      C2864   1.407       .  A
C2863      C2866   1.453       .  S
C2864      C2867   1.456       .  S
C2866      N2871   1.157       .  T
C2867      N2869   1.158       .  T
C2873      C2874   1.430       .  A
C2873      C2878   1.429       .  A
C2874      C2875   1.416       .  A
C2874      C2879   1.452       .  S
C2875      C2876   1.411       .  A
C2875      C2882   1.453       .  S
C2876      C2877   1.413       .  A
C2877      C2878   1.415       .  A
C2877      C2880   1.454       .  S
C2878      C2881   1.453       .  S
C2879      N2886   1.158       .  T
C2880      N2885   1.157       .  T
C2881      N2883   1.158       .  T
C2882      N2884   1.158       .  T
C2887      C2888   1.427       .  A
C2887      C2892   1.425       .  A
C2888      C2889   1.419       .  A
C2888      C2893   1.449       .  S
C2889      C2890   1.414       .  A
C2889      C2896   1.453       .  S
C2890      C2891   1.413       .  A
C2891      C2892   1.422       .  A
C2891      C2894   1.451       .  S
C2892      C2895   1.450       .  S
C2893      N2900   1.157       .  T
C2894      N2899   1.158       .  T
C2895      N2897   1.157       .  T
C2896      N2898   1.157       .  T
C2901      C2902   1.417       .  A
C2901      C2906   1.417       .  A
C2902      C2903   1.416       .  A
C2902      C2907   1.453       .  S
C2903      C2904   1.425       .  A
C2903      C2910   1.452       .  S
C2904      C2905   1.429       .  A
C2905      C2906   1.414       .  A
C2905      C2908   1.454       .  S
C2906      C2909   1.455       .  S
C2907      N2914   1.157       .  T
C2908      N2913   1.158       .  T
C2909      N2911   1.158       .  T
C2910      N2912   1.158       .  T
C2915      C2916   1.417       .  A
C2915      C2920   1.411       .  A
C2916      C2917   1.421       .  A
C2916      C2921   1.452       .  S
C2917      C2918   1.429       .  A
C2917      C2924   1.451       .  S
C2918      C2919   1.432       .  A
C2919      C2920   1.414       .  A
C2919      C2922   1.452       .  S
C2920      C2923   1.455       .  S
C2921      N2928   1.158       .  T
C2922      N2927   1.158       .  T
C2923      N2925   1.158       .  T
C2924      N2926   1.158       .  T
C2929      C2930   1.413       .  A
C2929      C2934   1.411       .  A
C2930      C2931   1.421       .  A
C2930      C2935   1.449       .  S
C2931      C2932   1.421       .  A
C2931      C2938   1.449       .  S
C2932      C2933   1.424       .  A
C2933      C2934   1.410       .  A
C2933      C2936   1.451       .  S
C2934      C2937   1.453       .  S
C2935      N2942   1.157       .  T
C2936      N2941   1.157       .  T
C2937      N2939   1.158       .  T
C2938      N2940   1.157       .  T
C2943      C2944   1.406       .  A
C2943      C2948   1.413       .  A
C2944      C2945   1.415       .  A
C2944      C2949   1.447       .  S
C2945      C2946   1.422       .  A
C2946      C2947   1.421       .  A
C2947      C2948   1.414       .  A
C2947      C2950   1.451       .  S
C2948      C2951   1.452       .  S
C2950      N2955   1.157       .  T
C2951      N2953   1.157       .  T
C2952      N2954   1.157       .  T
C2957      C2958   1.423       .  A
C2957      C2962   1.430       .  A
C2958      C2959   1.422       .  A
C2958      C2963   1.450       .  S
C2959      C2960   1.415       .  A
C2960      C2961   1.413       .  A
C2961      C2962   1.414       .  A
C2961      C2964   1.453       .  S
C2962      C2965   1.452       .  S
C2963      N2970   1.157       .  T
C2964      N2969   1.157       .  T
C2965      N2967   1.158       .  T
C2966      N2968   1.158       .  T
C2971      C2972   1.414       .  A
C2971      C2976   1.411       .  A
C2972      C2973   1.406       .  A
C2972      C2977   1.450       .  S
C2973      C2974   1.406       .  A
C2973      C2980   1.451       .  S
C2974      C2975   1.407       .  A
C2975      C2976   1.399       .  A
C2975      C2978   1.451       .  S
C2976      C2979   1.450       .  S
C2977      N2984   1.157       .  T
C2978      N2983   1.156       .  T
C2979      N2981   1.156       .  T
C2980      N2982   1.157       .  T
C2985      C2986   1.411       .  A
C2985      C2990   1.406       .  A
C2986      C2987   1.402       .  A
C2986      C2991   1.450       .  S
C2987      C2994   1.454       .  S
C2988      C2989   1.410       .  A
C2989      C2992   1.450       .  S
C2990      C2993   1.450       .  S
C2992      N2997   1.157       .  T
C2993      N2995   1.157       .  T
C2994      N2996   1.157       .  T
C2999      C3004   1.418       .  A
C3000      C3001   1.406       .  A
C3000      C3005   1.453       .  S
C3001      C3002   1.410       .  A
C3001      C3008   1.446       .  S
C3003      C3004   1.410       .  A
C3003      C3006   1.452       .  S
C3004      C3007   1.452       .  S
C3006      N3011   1.157       .  T
C3007      N3009   1.157       .  T
C3008      N3010   1.155       .  T
C3013      C3014   1.419       .  A
C3013      C3018   1.415       .  A
C3014      C3015   1.415       .  A
C3015      C3016   1.419       .  A
C3015      C3022   1.452       .  S
C3016      C3017   1.424       .  A
C3017      C3018   1.411       .  A
C3017      C3020   1.452       .  S
C3018      C3021   1.454       .  S
C3019      N3026   1.158       .  T
C3020      N3025   1.157       .  T
C3021      N3023   1.157       .  T
C3022      N3024   1.157       .  T
C3027      C3028   1.426       .  A
C3027      C3032   1.423       .  A
C3028      C3029   1.411       .  A
C3028      C3033   1.452       .  S
C3029      C3030   1.410       .  A
C3029      C3036   1.452       .  S
C3030      C3031   1.411       .  A
C3031      C3032   1.413       .  A
C3032      C3035   1.452       .  S
C3033      N3040   1.158       .  T
C3034      N3039   1.158       .  T
C3035      N3037   1.157       .  T
C3036      N3038   1.157       .  T
C3041      C3042   1.425       .  A
C3041      C3046   1.424       .  A
C3042      C3043   1.412       .  A
C3042      C3047   1.454       .  S
C3043      C3044   1.418       .  A
C3044      C3045   1.413       .  A
C3045      C3046   1.415       .  A
C3045      C3048   1.452       .  S
C3046      C3049   1.451       .  S
C3048      N3053   1.157       .  T
C3049      N3051   1.158       .  T
C3050      N3052   1.158       .  T
C3055      C3056   1.420       .  A
C3055      C3060   1.415       .  A
C3056      C3057   1.419       .  A
C3056      C3061   1.453       .  S
C3057      C3058   1.423       .  A
C3057      C3064   1.452       .  S
C3058      C3059   1.428       .  A
C3059      C3060   1.414       .  A
C3059      C3062   1.453       .  S
C3060      C3063   1.453       .  S
C3061      N3068   1.157       .  T
C3062      N3067   1.157       .  T
C3063      N3065   1.157       .  T
C3064      N3066   1.158       .  T
C3069      C3070   1.410       .  A
C3069      C3074   1.414       .  A
C3070      C3071   1.410       .  A
C3070      C3075   1.448       .  S
C3071      C3072   1.426       .  A
C3071      C3078   1.453       .  S
C3073      C3076   1.450       .  S
C3074      C3077   1.452       .  S
C3075      N3082   1.156       .  T
C3076      N3081   1.158       .  T
C3077      N3079   1.157       .  T
C3078      N3080   1.157       .  T
C3083      C3084   1.410       .  A
C3083      C3088   1.413       .  A
C3084      C3085   1.401       .  A
C3084      C3089   1.456       .  S
C3085      C3086   1.422       .  A
C3085      C3092   1.454       .  S
C3086      C3087   1.414       .  A
C3087      C3088   1.417       .  A
C3087      C3090   1.449       .  S
C3088      C3091   1.449       .  S
C3089      N3096   1.157       .  T
C3091      N3093   1.157       .  T
C3092      N3094   1.157       .  T
